#P AM1(Input,Print) opt

best

0 1
6        0.879928    -0.731785     0.008975
6       -0.384394    -1.242676    -0.007068
6       -0.354746     1.202243     0.092266
6        0.900287     0.759315    -0.075569
1        1.732516     1.343246     0.053969
1       -0.513905     2.277013     0.261193
1       -0.635902    -2.288411     0.220962
1        1.759230    -1.302242    -0.086717
16       -1.597795     0.040802    -0.130502

Method=8 CoreType=1 PeptideFC=0.0114505045 RIJScale=0.5291772086
****
H 
PQN=1 NValence=1 F0ss=0.4721553327 ZetaOverlap=1.1880780000 U=-0.4188110042
Beta=-0.2268825074 CoreKO=1.0589197790 KON=0,0,0,1.0589197790 KON=1,0,1,1.0589197790
KON=0,1,1,1.0589197790 KON=2,1,1,1.0589197790 EISol=-0.4188110042 EHeat=0.0830298228
Alpha=1.5252601686
GCore=0.0085277107,1.4001425905,2.2676713595
GCore=0.0003534810,1.4001425905,3.4015070392
GCore=-0.0012733648,0.5600570362,3.9684248791
****
C 
PQN=2,2 NValence=4 F0ss=0.4494442496 F0sp=0.4215147623 F0pp=0.3768030831 F2pp=0.1898715146
G1sp=0.2679025821
ZetaOverlap=1.8086650000,1.6851160000
U=-1.9120180828,-1.4557965594
Beta=-0.5775444233,-0.2836784428 DDN=0,1,0.8236736000 DDN=1,1,0.7268015000
CoreKO=1.1124284736 KON=0,0,0,1.1124284736 KON=1,0,1,0.8219701441 KON=0,1,1,1.1124284736
KON=2,1,1,0.7783928119 EISol=-4.4398989268 EHeat=0.2723305520 Alpha=1.4014062429
DipHyp=1.6472524267
GCore=0.0007885612,1.4001425905,3.0235618126
GCore=0.0031892455,1.4001425905,3.4959933458
GCore=-0.0013931594,1.4001425905,3.8739385724
GCore=-0.0000875022,1.4001425905,5.0077742521
****
S 
PQN=3,3 NValence=6 F0ss=0.4331396397 F0sp=0.3183640731 F0pp=0.3136271218 F2pp=0.3456917167
G1sp=0.2791629797
ZetaOverlap=2.3665150000,1.6672630000,1.0000000000
U=-2.0834683120,-1.7903186861
Beta=-0.1440781557,-0.2905136336 DDN=0,1,0.9004265000 DDN=1,1,1.0036329000
CoreKO=1.1543033468 KON=0,0,0,1.1543033468 KON=1,0,1,0.8464368816 KON=0,1,1,1.1543033468
KON=2,1,1,0.7746001785 EISol=-7.0460287497 EHeat=0.1058151363 Alpha=1.3026480172
DipHyp=1.8007493954
GCore=-0.0353616377,1.2863644833,1.4563457902
GCore=-0.0008238398,1.6425719595,2.8408498620
GCore=0.0008565489,3.7964407093,3.7967867236
****

--Link1--
#P AM1(Input,Print) CIS(Singlets,NStates=0) pop(full) freq

best1

0 1
6        0.879928    -0.731785     0.008975
6       -0.384394    -1.242676    -0.007068
6       -0.354746     1.202243     0.092266
6        0.900287     0.759315    -0.075569
1        1.732516     1.343246     0.053969
1       -0.513905     2.277013     0.261193
1       -0.635902    -2.288411     0.220962
1        1.759230    -1.302242    -0.086717
16       -1.597795     0.040802    -0.130502

Method=8 CoreType=1 PeptideFC=0.0114505045 RIJScale=0.5291772086
****
H 
PQN=1 NValence=1 F0ss=0.4721553327 ZetaOverlap=1.1880780000 U=-0.4188110042
Beta=-0.2268825074 CoreKO=1.0589197790 KON=0,0,0,1.0589197790 KON=1,0,1,1.0589197790
KON=0,1,1,1.0589197790 KON=2,1,1,1.0589197790 EISol=-0.4188110042 EHeat=0.0830298228
Alpha=1.5252601686
GCore=0.0085277107,1.4001425905,2.2676713595
GCore=0.0003534810,1.4001425905,3.4015070392
GCore=-0.0012733648,0.5600570362,3.9684248791
****
C 
PQN=2,2 NValence=4 F0ss=0.4494442496 F0sp=0.4215147623 F0pp=0.3768030831 F2pp=0.1898715146
G1sp=0.2679025821
ZetaOverlap=1.8086650000,1.6851160000
U=-1.9120180828,-1.4557965594
Beta=-0.5775444233,-0.2836784428 DDN=0,1,0.8236736000 DDN=1,1,0.7268015000
CoreKO=1.1124284736 KON=0,0,0,1.1124284736 KON=1,0,1,0.8219701441 KON=0,1,1,1.1124284736
KON=2,1,1,0.7783928119 EISol=-4.4398989268 EHeat=0.2723305520 Alpha=1.4014062429
DipHyp=1.6472524267
GCore=0.0007885612,1.4001425905,3.0235618126
GCore=0.0031892455,1.4001425905,3.4959933458
GCore=-0.0013931594,1.4001425905,3.8739385724
GCore=-0.0000875022,1.4001425905,5.0077742521
****
S 
PQN=3,3 NValence=6 F0ss=0.4331396397 F0sp=0.3183640731 F0pp=0.3136271218 F2pp=0.3456917167
G1sp=0.2791629797
ZetaOverlap=2.3665150000,1.6672630000,1.0000000000
U=-2.0834683120,-1.7903186861
Beta=-0.1440781557,-0.2905136336 DDN=0,1,0.9004265000 DDN=1,1,1.0036329000
CoreKO=1.1543033468 KON=0,0,0,1.1543033468 KON=1,0,1,0.8464368816 KON=0,1,1,1.1543033468
KON=2,1,1,0.7746001785 EISol=-7.0460287497 EHeat=0.1058151363 Alpha=1.3026480172
DipHyp=1.8007493954
GCore=-0.0353616377,1.2863644833,1.4563457902
GCore=-0.0008238398,1.6425719595,2.8408498620
GCore=0.0008565489,3.7964407093,3.7967867236
****

