#P AM1(Input,Print) opt

best

0   1
6        0.953642    -0.705480     0.009309
6       -0.325333    -1.091148    -0.075085
8       -1.156419     0.006679     0.013128
6       -0.369524     1.095685    -0.042886
6        0.958419     0.716854    -0.003524
1        1.806499     1.380229    -0.014045
1       -0.839480     2.050512     0.012601
1       -0.853383    -2.056034    -0.077631
1        1.809335    -1.369003    -0.037429

Method=8 CoreType=1 PeptideFC=0.0112525115 RIJScale=0.5291772086
****
H 
PQN=1 NValence=1 F0ss=0.4721553327 ZetaOverlap=1.1938233316 U=-0.4188110042
Beta=-0.2217019066 CoreKO=1.0589197790 KON=0,0,0,1.0589197790 KON=1,0,1,1.1388116636
KON=0,1,1,0.9232127001 KON=2,1,1,1.0589197790 EISol=-0.4188110042 EHeat=0.0830298228
Alpha=1.5252601686
GCore=0.0085899062,1.3393394938,2.2676713595
GCore=0.0003534810,1.4998112861,3.3718189601
GCore=-0.0012733648,0.5600570362,3.5719006330
****
C 
PQN=2,2 NValence=4 F0ss=0.4524288975 F0sp=0.4522095404 F0pp=0.3739486843 F2pp=0.1893151862
G1sp=0.2569901150
ZetaOverlap=1.8086650000,1.6851160000
U=-1.8899642094,-1.4597967663
Beta=-0.5515723134,-0.2836784428 DDN=0,1,0.8473594566 DDN=1,1,0.7116835943
CoreKO=1.1895484724 KON=0,0,0,1.1124284736 KON=1,0,1,0.8219701441 KON=0,1,1,1.0730801600
KON=2,1,1,0.8240378188 EISol=-4.4398989268 EHeat=0.2723305520 Alpha=1.4014062429
DipHyp=1.5565660715
GCore=0.0008062681,1.4001425905,2.6974644940
GCore=0.0034083223,1.4001425905,3.3368976248
GCore=-0.0013693412,1.3567830806,3.8739385724
GCore=-0.0000875022,1.5041662649,5.0077742521
****
O 
PQN=2,2 NValence=6 F0ss=0.5666745976 F0sp=0.5321302318 F0pp=0.4958708974 F2pp=0.2358081713
G1sp=0.4343770262
ZetaOverlap=3.0424090325,2.5240390000
U=-3.5951865036,-2.8760896690
Beta=-1.0757546603,-1.0757546603 DDN=0,1,0.5460718876 DDN=1,1,0.4852322000
CoreKO=0.8822957477 KON=0,0,0,0.9198521378 KON=1,0,1,0.5019543089 KON=0,1,1,0.9401631592
KON=2,1,1,0.5556751753 EISol=-11.6164441184 EHeat=0.0949133088 Alpha=2.5926110419
DipHyp=0.9711750255
GCore=0.0196357516,1.2725255633,1.6023328031
GCore=0.0053190216,1.9601996266,2.7307884326
****

--Link1--
#P AM1(Input,Print) CIS(Singlets,NStates=10) pop(full) freq

best1

0   1
6        0.953642    -0.705480     0.009309
6       -0.325333    -1.091148    -0.075085
8       -1.156419     0.006679     0.013128
6       -0.369524     1.095685    -0.042886
6        0.958419     0.716854    -0.003524
1        1.806499     1.380229    -0.014045
1       -0.839480     2.050512     0.012601
1       -0.853383    -2.056034    -0.077631
1        1.809335    -1.369003    -0.037429

Method=8 CoreType=1 PeptideFC=0.0112525115 RIJScale=0.5291772086
****
H 
PQN=1 NValence=1 F0ss=0.4721553327 ZetaOverlap=1.1938233316 U=-0.4188110042
Beta=-0.2217019066 CoreKO=1.0589197790 KON=0,0,0,1.0589197790 KON=1,0,1,1.1388116636
KON=0,1,1,0.9232127001 KON=2,1,1,1.0589197790 EISol=-0.4188110042 EHeat=0.0830298228
Alpha=1.5252601686
GCore=0.0085899062,1.3393394938,2.2676713595
GCore=0.0003534810,1.4998112861,3.3718189601
GCore=-0.0012733648,0.5600570362,3.5719006330
****
C 
PQN=2,2 NValence=4 F0ss=0.4524288975 F0sp=0.4522095404 F0pp=0.3739486843 F2pp=0.1893151862
G1sp=0.2569901150
ZetaOverlap=1.8086650000,1.6851160000
U=-1.8899642094,-1.4597967663
Beta=-0.5515723134,-0.2836784428 DDN=0,1,0.8473594566 DDN=1,1,0.7116835943
CoreKO=1.1895484724 KON=0,0,0,1.1124284736 KON=1,0,1,0.8219701441 KON=0,1,1,1.0730801600
KON=2,1,1,0.8240378188 EISol=-4.4398989268 EHeat=0.2723305520 Alpha=1.4014062429
DipHyp=1.5565660715
GCore=0.0008062681,1.4001425905,2.6974644940
GCore=0.0034083223,1.4001425905,3.3368976248
GCore=-0.0013693412,1.3567830806,3.8739385724
GCore=-0.0000875022,1.5041662649,5.0077742521
****
O 
PQN=2,2 NValence=6 F0ss=0.5666745976 F0sp=0.5321302318 F0pp=0.4958708974 F2pp=0.2358081713
G1sp=0.4343770262
ZetaOverlap=3.0424090325,2.5240390000
U=-3.5951865036,-2.8760896690
Beta=-1.0757546603,-1.0757546603 DDN=0,1,0.5460718876 DDN=1,1,0.4852322000
CoreKO=0.8822957477 KON=0,0,0,0.9198521378 KON=1,0,1,0.5019543089 KON=0,1,1,0.9401631592
KON=2,1,1,0.5556751753 EISol=-11.6164441184 EHeat=0.0949133088 Alpha=2.5926110419
DipHyp=0.9711750255
GCore=0.0196357516,1.2725255633,1.6023328031
GCore=0.0053190216,1.9601996266,2.7307884326
****

