#P AM1(Input,Print) opt

best

0   1
6        0.976728    -0.731964    -0.075228
6       -0.345819    -1.087508     0.030009
8       -1.118208     0.034550     0.046388
6       -0.346076     1.091321     0.064601
6        0.956391     0.717577    -0.006551
1        1.793418     1.339235     0.030986
1       -0.796865     2.098835     0.001013
1       -0.784768    -1.998865     0.027884
1        1.796505    -1.382545     0.095361

Method=8 CoreType=1 PeptideFC=0.0107032408 RIJScale=0.5646683443
****
H 
PQN=1 NValence=1 F0ss=0.4902250734 ZetaOverlap=1.2625510943 U=-0.4601465906
Beta=-0.2224699164 CoreKO=1.0291173295 KON=0,0,0,1.1055276885 KON=1,0,1,1.0085272650
KON=0,1,1,1.0259108377 KON=2,1,1,1.0589197790 EISol=-0.4188110042 EHeat=0.0830298228
Alpha=1.2572081350
GCore=0.0081342693,1.4505257765,2.1160306407
GCore=0.0003696981,1.5179527606,3.3888367972
GCore=-0.0011992083,0.5154975422,4.0399040163
****
C 
PQN=2,2 NValence=4 F0ss=0.4612714573 F0sp=0.4215147623 F0pp=0.3269054842 F2pp=0.2085460392
G1sp=0.3096434975
ZetaOverlap=2.1646468441,1.5569944789
U=-1.5334837513,-1.4974702043
Beta=-0.6252100258,-0.3068862367 DDN=0,1,0.6984301211 DDN=1,1,0.7702570468
CoreKO=1.3151611645 KON=0,0,0,1.2382550940 KON=1,0,1,0.8617144622 KON=0,1,1,1.0637633139
KON=2,1,1,0.8576090188 EISol=-4.4398989268 EHeat=0.2723305520 Alpha=1.3368170489
DipHyp=1.7471069178
GCore=0.0009704188,1.2981166851,3.4515465450
GCore=0.0028863397,1.5385714962,3.2100917158
GCore=-0.0014099133,1.4874457386,3.8453859100
GCore=-0.0000860662,1.3789752971,5.2587410456
****
O 
PQN=2,2 NValence=6 F0ss=0.5359690226 F0sp=0.5321302318 F0pp=0.4840519312 F2pp=0.2639984521
G1sp=0.4450193053
ZetaOverlap=2.8176196354,2.2908378184
U=-3.6356959050,-2.4160313669
Beta=-1.1447216884,-1.0701077288 DDN=0,1,0.5129696429 DDN=1,1,0.4392220846
CoreKO=0.9737932452 KON=0,0,0,0.8111546111 KON=1,0,1,0.5440307728 KON=0,1,1,0.8528423668
KON=2,1,1,0.6049512231 EISol=-11.6164441184 EHeat=0.0949133088 Alpha=2.2596482987
DipHyp=1.0076333012
GCore=0.0203637789,1.7341302153,2.0999404139
GCore=0.0054396795,2.1476287035,2.3942679546
****

--Link1--
#P AM1(Input,Print) CIS(Singlets,NStates=10) pop(full) freq

best1

0   1
6        0.976728    -0.731964    -0.075228
6       -0.345819    -1.087508     0.030009
8       -1.118208     0.034550     0.046388
6       -0.346076     1.091321     0.064601
6        0.956391     0.717577    -0.006551
1        1.793418     1.339235     0.030986
1       -0.796865     2.098835     0.001013
1       -0.784768    -1.998865     0.027884
1        1.796505    -1.382545     0.095361

Method=8 CoreType=1 PeptideFC=0.0107032408 RIJScale=0.5646683443
****
H 
PQN=1 NValence=1 F0ss=0.4902250734 ZetaOverlap=1.2625510943 U=-0.4601465906
Beta=-0.2224699164 CoreKO=1.0291173295 KON=0,0,0,1.1055276885 KON=1,0,1,1.0085272650
KON=0,1,1,1.0259108377 KON=2,1,1,1.0589197790 EISol=-0.4188110042 EHeat=0.0830298228
Alpha=1.2572081350
GCore=0.0081342693,1.4505257765,2.1160306407
GCore=0.0003696981,1.5179527606,3.3888367972
GCore=-0.0011992083,0.5154975422,4.0399040163
****
C 
PQN=2,2 NValence=4 F0ss=0.4612714573 F0sp=0.4215147623 F0pp=0.3269054842 F2pp=0.2085460392
G1sp=0.3096434975
ZetaOverlap=2.1646468441,1.5569944789
U=-1.5334837513,-1.4974702043
Beta=-0.6252100258,-0.3068862367 DDN=0,1,0.6984301211 DDN=1,1,0.7702570468
CoreKO=1.3151611645 KON=0,0,0,1.2382550940 KON=1,0,1,0.8617144622 KON=0,1,1,1.0637633139
KON=2,1,1,0.8576090188 EISol=-4.4398989268 EHeat=0.2723305520 Alpha=1.3368170489
DipHyp=1.7471069178
GCore=0.0009704188,1.2981166851,3.4515465450
GCore=0.0028863397,1.5385714962,3.2100917158
GCore=-0.0014099133,1.4874457386,3.8453859100
GCore=-0.0000860662,1.3789752971,5.2587410456
****
O 
PQN=2,2 NValence=6 F0ss=0.5359690226 F0sp=0.5321302318 F0pp=0.4840519312 F2pp=0.2639984521
G1sp=0.4450193053
ZetaOverlap=2.8176196354,2.2908378184
U=-3.6356959050,-2.4160313669
Beta=-1.1447216884,-1.0701077288 DDN=0,1,0.5129696429 DDN=1,1,0.4392220846
CoreKO=0.9737932452 KON=0,0,0,0.8111546111 KON=1,0,1,0.5440307728 KON=0,1,1,0.8528423668
KON=2,1,1,0.6049512231 EISol=-11.6164441184 EHeat=0.0949133088 Alpha=2.2596482987
DipHyp=1.0076333012
GCore=0.0203637789,1.7341302153,2.0999404139
GCore=0.0054396795,2.1476287035,2.3942679546
****

