#P AM1(Input,Print) CIS(Singlets,NStates=2) pop(full) freq

hi

0   1
6        0.946474    -0.713891     0.011451
6       -0.334035    -1.126168     0.016436
8       -1.166097     0.021094    -0.055201
6       -0.364349     1.104483    -0.007082
6        0.972492     0.700435    -0.037997
1        1.777672     1.360346     0.003468
1       -0.816453     2.077493    -0.078009
1       -0.835632    -2.036197     0.007342
1        1.791027    -1.398072    -0.005354

Method=8 CoreType=1 PeptideFC=0.0114505045 RIJScale=0.5291772086
****
H 
PQN=1 NValence=1 F0ss=0.4721553327 ZetaOverlap=1.1880780000 U=-0.4188110042
Beta=-0.2268825074 CoreKO=1.0589197790 KON=0,0,0,1.0589197790 KON=1,0,1,1.0995705922
KON=0,1,1,1.0589197790 KON=2,1,1,0.9694076158 EISol=-0.4188110042 EHeat=0.0830298228
Alpha=1.4830665591
GCore=0.0085277107,1.5102607824,2.2676713595
GCore=0.0003534810,1.4001425905,3.8343994003
GCore=-0.0013941591,0.5600570362,4.4322744636
****
C 
PQN=2,2 NValence=4 F0ss=0.4494442496 F0sp=0.4080939827 F0pp=0.3768030831 F2pp=0.1898715146
G1sp=0.2811075421
ZetaOverlap=1.8086650000,1.6851160000
U=-1.9120180828,-1.4557965594
Beta=-0.5692714601,-0.2836784428 DDN=0,1,0.8236736000 DDN=1,1,0.7268015000
CoreKO=1.1124284736 KON=0,0,0,1.3312356666 KON=1,0,1,0.7425122459 KON=0,1,1,1.1124284736
KON=2,1,1,0.7737822959 EISol=-4.4398989268 EHeat=0.2723305520 Alpha=1.4442495756
DipHyp=1.6472524267
GCore=0.0007885612,1.4001425905,2.7641533825
GCore=0.0031892455,1.4001425905,3.4959933458
GCore=-0.0013931594,1.4001425905,3.8739385724
GCore=-0.0000809569,1.4001425905,4.6658091600
****
O 
PQN=2,2 NValence=6 F0ss=0.5666745976 F0sp=0.5321302318 F0pp=0.4970123170 F2pp=0.2358081713
G1sp=0.4343770262
ZetaOverlap=3.1080320000,2.5240390000
U=-3.6755421181,-2.8760896690
Beta=-1.0717106821,-1.0757546603 DDN=0,1,0.4988896000 DDN=1,1,0.4852322000
CoreKO=0.8822957477 KON=0,0,0,0.8822957477 KON=1,0,1,0.5019543089 KON=0,1,1,0.8822957477
KON=2,1,1,0.5614334953 EISol=-11.6164441184 EHeat=0.0949133088 Alpha=2.2498709296
DipHyp=0.9977217969
GCore=0.0195117322,1.4001425905,1.6669736584
GCore=0.0051510953,1.8451972663,2.5802964284
****

