#P AM1(Input,Print) opt

best

0   1
6        0.961919    -0.714719    -0.009241
6       -0.327566    -1.092899    -0.026381
8       -1.159217    -0.001289    -0.005381
6       -0.363317     1.108254    -0.013890
6        0.953415     0.697189     0.094054
1        1.810315     1.369774    -0.051430
1       -0.804222     2.037356    -0.017360
1       -0.840184    -2.108268     0.012209
1        1.809100    -1.340387     0.075961

Method=8 CoreType=1 PeptideFC=0.0114505045 RIJScale=0.5291772086
****
H 
PQN=1 NValence=1 F0ss=0.4721553327 ZetaOverlap=1.1880780000 U=-0.4188110042
Beta=-0.2441223054 CoreKO=1.0589197790 KON=0,0,0,1.0589197790 KON=1,0,1,1.0589197790
KON=0,1,1,1.0589197790 KON=2,1,1,0.9843725478 EISol=-0.4188110042 EHeat=0.0830298228
Alpha=1.6558439973
GCore=0.0080630777,1.4001425905,2.2928194418
GCore=0.0003534810,1.5268383192,3.4015070392
GCore=-0.0012733648,0.5600570362,3.9684248791
****
C 
PQN=2,2 NValence=4 F0ss=0.4517579033 F0sp=0.4215147623 F0pp=0.3426493745 F2pp=0.1898715146
G1sp=0.2679025821
ZetaOverlap=1.8086650000,1.6851160000
U=-1.9120180828,-1.4557965594
Beta=-0.5775444233,-0.2836784428 DDN=0,1,0.8236736000 DDN=1,1,0.7268015000
CoreKO=1.1124284736 KON=0,0,0,1.1124284736 KON=1,0,1,0.8219701441 KON=0,1,1,1.0275270532
KON=2,1,1,0.8007689454 EISol=-4.4398989268 EHeat=0.2723305520 Alpha=1.4014062429
DipHyp=1.6472524267
GCore=0.0007885612,1.4001425905,2.9110675965
GCore=0.0031892455,1.4001425905,3.1888237693
GCore=-0.0013931594,1.4001425905,3.7775512852
GCore=-0.0000875022,1.4001425905,5.0077742521
****
O 
PQN=2,2 NValence=6 F0ss=0.5501774639 F0sp=0.5321302318 F0pp=0.4958708974 F2pp=0.2358081713
G1sp=0.4479942254
ZetaOverlap=3.1080320000,2.5240390000
U=-3.5951865036,-2.8760896690
Beta=-1.0685440671,-1.0757546603 DDN=0,1,0.4988896000 DDN=1,1,0.4375728488
CoreKO=0.8822957477 KON=0,0,0,0.8822957477 KON=1,0,1,0.5019543089 KON=0,1,1,0.8822957477
KON=2,1,1,0.5515584117 EISol=-11.6164441184 EHeat=0.0949133088 Alpha=2.3576807890
DipHyp=0.9100139615
GCore=0.0204109328,1.4863573494,1.6023328031
GCore=0.0059072227,2.0615561427,2.7307884326
****

--Link1--
#P AM1(Input,Print) CIS(Singlets,NStates=10) pop(full) freq

best1

0   1
6        0.961919    -0.714719    -0.009241
6       -0.327566    -1.092899    -0.026381
8       -1.159217    -0.001289    -0.005381
6       -0.363317     1.108254    -0.013890
6        0.953415     0.697189     0.094054
1        1.810315     1.369774    -0.051430
1       -0.804222     2.037356    -0.017360
1       -0.840184    -2.108268     0.012209
1        1.809100    -1.340387     0.075961

Method=8 CoreType=1 PeptideFC=0.0114505045 RIJScale=0.5291772086
****
H 
PQN=1 NValence=1 F0ss=0.4721553327 ZetaOverlap=1.1880780000 U=-0.4188110042
Beta=-0.2441223054 CoreKO=1.0589197790 KON=0,0,0,1.0589197790 KON=1,0,1,1.0589197790
KON=0,1,1,1.0589197790 KON=2,1,1,0.9843725478 EISol=-0.4188110042 EHeat=0.0830298228
Alpha=1.6558439973
GCore=0.0080630777,1.4001425905,2.2928194418
GCore=0.0003534810,1.5268383192,3.4015070392
GCore=-0.0012733648,0.5600570362,3.9684248791
****
C 
PQN=2,2 NValence=4 F0ss=0.4517579033 F0sp=0.4215147623 F0pp=0.3426493745 F2pp=0.1898715146
G1sp=0.2679025821
ZetaOverlap=1.8086650000,1.6851160000
U=-1.9120180828,-1.4557965594
Beta=-0.5775444233,-0.2836784428 DDN=0,1,0.8236736000 DDN=1,1,0.7268015000
CoreKO=1.1124284736 KON=0,0,0,1.1124284736 KON=1,0,1,0.8219701441 KON=0,1,1,1.0275270532
KON=2,1,1,0.8007689454 EISol=-4.4398989268 EHeat=0.2723305520 Alpha=1.4014062429
DipHyp=1.6472524267
GCore=0.0007885612,1.4001425905,2.9110675965
GCore=0.0031892455,1.4001425905,3.1888237693
GCore=-0.0013931594,1.4001425905,3.7775512852
GCore=-0.0000875022,1.4001425905,5.0077742521
****
O 
PQN=2,2 NValence=6 F0ss=0.5501774639 F0sp=0.5321302318 F0pp=0.4958708974 F2pp=0.2358081713
G1sp=0.4479942254
ZetaOverlap=3.1080320000,2.5240390000
U=-3.5951865036,-2.8760896690
Beta=-1.0685440671,-1.0757546603 DDN=0,1,0.4988896000 DDN=1,1,0.4375728488
CoreKO=0.8822957477 KON=0,0,0,0.8822957477 KON=1,0,1,0.5019543089 KON=0,1,1,0.8822957477
KON=2,1,1,0.5515584117 EISol=-11.6164441184 EHeat=0.0949133088 Alpha=2.3576807890
DipHyp=0.9100139615
GCore=0.0204109328,1.4863573494,1.6023328031
GCore=0.0059072227,2.0615561427,2.7307884326
****

