#P AM1 opt

AM1-Reparam Input

0   1
6        0.955475   -0.715963    0.000000
6       -0.345627   -1.092818    0.000000
8       -1.157305    0.000000    0.000000
6       -0.345627    1.092818    0.000000
6        0.955475    0.715963    0.000000
1        1.810438    1.369382    0.000000
1       -0.840307    2.046884    0.000000
1       -0.840307   -2.046884    0.000000
1        1.810438   -1.369382    0.000000

--Link1--
#P AM1 CIS(Singlets,Nstates=10) pop(full)

Linked

0   1
6        0.955475   -0.715963    0.000000
6       -0.345627   -1.092818    0.000000
8       -1.157305    0.000000    0.000000
6       -0.345627    1.092818    0.000000
6        0.955475    0.715963    0.000000
1        1.810438    1.369382    0.000000
1       -0.840307    2.046884    0.000000
1       -0.840307   -2.046884    0.000000
1        1.810438   -1.369382    0.000000

--Link1--
#P AM1 freq

Linked

0   1
6        0.955475   -0.715963    0.000000
6       -0.345627   -1.092818    0.000000
8       -1.157305    0.000000    0.000000
6       -0.345627    1.092818    0.000000
6        0.955475    0.715963    0.000000
1        1.810438    1.369382    0.000000
1       -0.840307    2.046884    0.000000
1       -0.840307   -2.046884    0.000000
1        1.810438   -1.369382    0.000000

