#P B3LYP/3-21G opt

AM1-Reparam Input

0   1
6        0.955475   -0.715963    0.000000
6       -0.345627   -1.092818    0.000000
8       -1.157305    0.000000    0.000000
6       -0.345627    1.092818    0.000000
6        0.955475    0.715963    0.000000
1        1.810438    1.369382    0.000000
1       -0.840307    2.046884    0.000000
1       -0.840307   -2.046884    0.000000
1        1.810438   -1.369382    0.000000

--Link 1--
#P B3LYP/3-21G CIS(Singlets,Nstates=10) pop(full) freq

AM1-Reparam Input

0   1
6        0.955475   -0.715963    0.000000
6       -0.345627   -1.092818    0.000000
8       -1.157305    0.000000    0.000000
6       -0.345627    1.092818    0.000000
6        0.955475    0.715963    0.000000
1        1.810438    1.369382    0.000000
1       -0.840307    2.046884    0.000000
1       -0.840307   -2.046884    0.000000
1        1.810438   -1.369382    0.000000


