#P AM1(Input,print) CIS(Singlets,NStates=15) pop(full)

Title Card Required

0 1
 C                 -2.32075615    1.72243141    0.15222500
 H                 -3.25598802    2.22435797    0.01690660
 C                 -2.06018487    0.47582706   -0.28307993
 H                 -2.68796980   -0.13079484   -0.90178498
 C                 -0.71774496    0.09580013    0.28699331
 H                 -0.20501172   -0.83368734    0.15261451
 C                 -0.29822969    1.14988100    1.01110010
 H                  0.56711212    1.14208903    1.64040355
 O                 -1.17147089    2.30076581    0.83301386

--Link1--
#P B3LYP/3-21G freq

Title Card Required

0 1
 C                 -2.32075615    1.72243141    0.15222500
 H                 -3.25598802    2.22435797    0.01690660
 C                 -2.06018487    0.47582706   -0.28307993
 H                 -2.68796980   -0.13079484   -0.90178498
 C                 -0.71774496    0.09580013    0.28699331
 H                 -0.20501172   -0.83368734    0.15261451
 C                 -0.29822969    1.14988100    1.01110010
 H                  0.56711212    1.14208903    1.64040355
 O                 -1.17147089    2.30076581    0.83301386

