%chk=best
#P AM1(Input,Print) opt

best

0 1
6        0.898529    -0.711401    -0.019640
6       -0.487411    -1.207038     0.040254
6       -0.362781     1.236445     0.056141
6        0.874971     0.762928    -0.039536
1        1.802616     1.326223    -0.110659
1       -0.574488     2.357490     0.173247
1       -0.614706    -2.276480     0.126503
1        1.782390    -1.270412    -0.078902
16       -1.633779     0.104702    -0.151189

Method=8 CoreType=1 PeptideFC=0.0114505045 RIJScale=0.5097085656
****
H 
PQN=1 NValence=1 F0ss=0.4721553327 ZetaOverlap=1.1967899151 U=-0.4178165546
Beta=-0.2268825074 CoreKO=1.0589197790 KON=0,0,0,1.0589197790 KON=1,0,1,1.0589197790
KON=0,1,1,1.1338497770 KON=2,1,1,1.0589197790 EISol=-0.4188110042 EHeat=0.0830298228
Alpha=1.5420711911
GCore=0.0085277107,1.4001425905,2.3518998584
GCore=0.0003550160,1.3820364847,3.2944744699
GCore=-0.0013331749,0.5569399777,3.9678528693
****
C 
PQN=2,2 NValence=4 F0ss=0.4713999445 F0sp=0.4215147623 F0pp=0.3775130132 F2pp=0.1946535675
G1sp=0.2620642432
ZetaOverlap=1.8289129402,1.6851160000
U=-1.8208872931,-1.4557965594
Beta=-0.5861407426,-0.3014199899 DDN=0,1,0.8236736000 DDN=1,1,0.7357327041
CoreKO=1.0543372640 KON=0,0,0,1.1499164562 KON=1,0,1,0.8142463874 KON=0,1,1,1.1847630970
KON=2,1,1,0.8407984374 EISol=-4.4398989268 EHeat=0.2723305520 Alpha=1.4014062429
DipHyp=1.6472524267
GCore=0.0007466651,1.4748244111,3.0235618126
GCore=0.0030270540,1.3946676127,3.5670991522
GCore=-0.0014435585,1.4672652968,3.9169159928
GCore=-0.0000925100,1.3855898444,4.7742848384
****
S 
PQN=3,3 NValence=6 F0ss=0.4299117232 F0sp=0.3183640731 F0pp=0.3159896537 F2pp=0.3492272603
G1sp=0.2802194606
ZetaOverlap=2.2599319466,1.5025669507,0.9900363356
U=-2.0808039047,-1.8031392230
Beta=-0.1455396953,-0.2874926072 DDN=0,1,0.9004265000 DDN=1,1,0.8814241665
CoreKO=1.1097709178 KON=0,0,0,1.1543033468 KON=1,0,1,0.8464368816 KON=0,1,1,1.1215728428
KON=2,1,1,0.7746001785 EISol=-7.0460287497 EHeat=0.1058151363 Alpha=1.3026480172
DipHyp=1.7932846657
GCore=-0.0319045018,1.4127101318,1.4563457902
GCore=-0.0008126128,1.7658522049,2.8456265567
GCore=0.0008107998,3.5617377255,3.7967867236
****

--Link1--
%chk=best
#P AM1(Input,Print) freq geom=Checkpoint

best1

0 1

Method=8 CoreType=1 PeptideFC=0.0114505045 RIJScale=0.5097085656
****
H 
PQN=1 NValence=1 F0ss=0.4721553327 ZetaOverlap=1.1967899151 U=-0.4178165546
Beta=-0.2268825074 CoreKO=1.0589197790 KON=0,0,0,1.0589197790 KON=1,0,1,1.0589197790
KON=0,1,1,1.1338497770 KON=2,1,1,1.0589197790 EISol=-0.4188110042 EHeat=0.0830298228
Alpha=1.5420711911
GCore=0.0085277107,1.4001425905,2.3518998584
GCore=0.0003550160,1.3820364847,3.2944744699
GCore=-0.0013331749,0.5569399777,3.9678528693
****
C 
PQN=2,2 NValence=4 F0ss=0.4713999445 F0sp=0.4215147623 F0pp=0.3775130132 F2pp=0.1946535675
G1sp=0.2620642432
ZetaOverlap=1.8289129402,1.6851160000
U=-1.8208872931,-1.4557965594
Beta=-0.5861407426,-0.3014199899 DDN=0,1,0.8236736000 DDN=1,1,0.7357327041
CoreKO=1.0543372640 KON=0,0,0,1.1499164562 KON=1,0,1,0.8142463874 KON=0,1,1,1.1847630970
KON=2,1,1,0.8407984374 EISol=-4.4398989268 EHeat=0.2723305520 Alpha=1.4014062429
DipHyp=1.6472524267
GCore=0.0007466651,1.4748244111,3.0235618126
GCore=0.0030270540,1.3946676127,3.5670991522
GCore=-0.0014435585,1.4672652968,3.9169159928
GCore=-0.0000925100,1.3855898444,4.7742848384
****
S 
PQN=3,3 NValence=6 F0ss=0.4299117232 F0sp=0.3183640731 F0pp=0.3159896537 F2pp=0.3492272603
G1sp=0.2802194606
ZetaOverlap=2.2599319466,1.5025669507,0.9900363356
U=-2.0808039047,-1.8031392230
Beta=-0.1455396953,-0.2874926072 DDN=0,1,0.9004265000 DDN=1,1,0.8814241665
CoreKO=1.1097709178 KON=0,0,0,1.1543033468 KON=1,0,1,0.8464368816 KON=0,1,1,1.1215728428
KON=2,1,1,0.7746001785 EISol=-7.0460287497 EHeat=0.1058151363 Alpha=1.3026480172
DipHyp=1.7932846657
GCore=-0.0319045018,1.4127101318,1.4563457902
GCore=-0.0008126128,1.7658522049,2.8456265567
GCore=0.0008107998,3.5617377255,3.7967867236
****

--Link1--
%chk=best
#P AM1(Input,Print) CIS(Singlets,NStates=10) pop(full) geom=Checkpoint

best1

0 1

Method=8 CoreType=1 PeptideFC=0.0114505045 RIJScale=0.5097085656
****
H 
PQN=1 NValence=1 F0ss=0.4721553327 ZetaOverlap=1.1967899151 U=-0.4178165546
Beta=-0.2268825074 CoreKO=1.0589197790 KON=0,0,0,1.0589197790 KON=1,0,1,1.0589197790
KON=0,1,1,1.1338497770 KON=2,1,1,1.0589197790 EISol=-0.4188110042 EHeat=0.0830298228
Alpha=1.5420711911
GCore=0.0085277107,1.4001425905,2.3518998584
GCore=0.0003550160,1.3820364847,3.2944744699
GCore=-0.0013331749,0.5569399777,3.9678528693
****
C 
PQN=2,2 NValence=4 F0ss=0.4713999445 F0sp=0.4215147623 F0pp=0.3775130132 F2pp=0.1946535675
G1sp=0.2620642432
ZetaOverlap=1.8289129402,1.6851160000
U=-1.8208872931,-1.4557965594
Beta=-0.5861407426,-0.3014199899 DDN=0,1,0.8236736000 DDN=1,1,0.7357327041
CoreKO=1.0543372640 KON=0,0,0,1.1499164562 KON=1,0,1,0.8142463874 KON=0,1,1,1.1847630970
KON=2,1,1,0.8407984374 EISol=-4.4398989268 EHeat=0.2723305520 Alpha=1.4014062429
DipHyp=1.6472524267
GCore=0.0007466651,1.4748244111,3.0235618126
GCore=0.0030270540,1.3946676127,3.5670991522
GCore=-0.0014435585,1.4672652968,3.9169159928
GCore=-0.0000925100,1.3855898444,4.7742848384
****
S 
PQN=3,3 NValence=6 F0ss=0.4299117232 F0sp=0.3183640731 F0pp=0.3159896537 F2pp=0.3492272603
G1sp=0.2802194606
ZetaOverlap=2.2599319466,1.5025669507,0.9900363356
U=-2.0808039047,-1.8031392230
Beta=-0.1455396953,-0.2874926072 DDN=0,1,0.9004265000 DDN=1,1,0.8814241665
CoreKO=1.1097709178 KON=0,0,0,1.1543033468 KON=1,0,1,0.8464368816 KON=0,1,1,1.1215728428
KON=2,1,1,0.7746001785 EISol=-7.0460287497 EHeat=0.1058151363 Alpha=1.3026480172
DipHyp=1.7932846657
GCore=-0.0319045018,1.4127101318,1.4563457902
GCore=-0.0008126128,1.7658522049,2.8456265567
GCore=0.0008107998,3.5617377255,3.7967867236
****

