%chk=best
#P AM1(Input,Print) freq

best

0 1
6        0.886877    -0.683479    -0.054462
6       -0.412061    -1.202485    -0.005295
6       -0.332371     1.305778     0.042737
6        0.895551     0.691700     0.015352
1        1.804380     1.318517    -0.036575
1       -0.553430     2.351628     0.239331
1       -0.685998    -2.310021     0.107929
1        1.771106    -1.246727    -0.160151
16       -1.576482    -0.003414    -0.112682

Method=8 CoreType=1 PeptideFC=0.0121077625 RIJScale=0.5148421843
****
H 
PQN=1 NValence=1 F0ss=0.3861905212 ZetaOverlap=1.2496120360 U=-0.4188110042
Beta=-0.2369859586 CoreKO=1.0579003764 KON=0,0,0,1.0589197790 KON=1,0,1,1.0497731350
KON=0,1,1,1.0019787936 KON=2,1,1,1.0303754612 EISol=-0.4188110042 EHeat=0.0830298228
Alpha=1.5411457947
GCore=0.0082680393,1.3799011174,2.2676713595
GCore=0.0003656320,1.3109146540,3.3684245479
GCore=-0.0012900288,0.5906486780,3.9242493919
****
C 
PQN=2,2 NValence=4 F0ss=0.5341278571 F0sp=0.3848580628 F0pp=0.4186252881 F2pp=0.1960977238
G1sp=0.2549607877
ZetaOverlap=1.7888907992,1.5900900460
U=-1.9120180828,-1.5193343571
Beta=-0.6167809829,-0.2849048578 DDN=0,1,0.8102100380 DDN=1,1,0.6820171242
CoreKO=1.0304091322 KON=0,0,0,1.0906754025 KON=1,0,1,0.8098642350 KON=0,1,1,1.0295078685
KON=2,1,1,0.7580621091 EISol=-4.4398989268 EHeat=0.2723305520 Alpha=1.3929601747
DipHyp=1.7589958100
GCore=0.0007908418,1.3753946001,2.8862491072
GCore=0.0040442674,1.4337860813,3.1243303050
GCore=-0.0011809165,1.2972620337,3.8739385724
GCore=-0.0000896351,1.4220637298,4.9827618837
****
S 
PQN=3,3 NValence=6 F0ss=0.4231238846 F0sp=0.3183640731 F0pp=0.3136271218 F2pp=0.3513050233
G1sp=0.2461258931
ZetaOverlap=2.1664799235,1.4222069465,0.9376044970
U=-2.0834683120,-1.8359407715
Beta=-0.1301172936,-0.2928210956 DDN=0,1,0.9004265000 DDN=1,1,1.0069068502
CoreKO=1.1087944437 KON=0,0,0,1.1203815822 KON=1,0,1,0.7811934487 KON=0,1,1,1.0648909719
KON=2,1,1,0.8270286475 EISol=-7.0460287497 EHeat=0.1058151363 Alpha=1.3026480172
DipHyp=1.9140554075
GCore=-0.0361455890,1.2555382754,1.6063090732
GCore=-0.0006608381,1.6425719595,3.3504655668
GCore=0.0008177898,3.6591110164,3.7967867236
****

