%chk=best
#P AM1(Input,Print) opt

best

0 1
6        0.921618    -0.670117     0.020801
6       -0.410169    -1.221603    -0.068712
6       -0.367467     1.273336     0.106748
6        0.876758     0.735820    -0.009506
1        1.783452     1.364664    -0.067368
1       -0.568059     2.309153     0.217069
1       -0.552588    -2.276715     0.092619
1        1.756952    -1.283326    -0.072308
16       -1.680645     0.076370    -0.163623

Method=8 CoreType=1 PeptideFC=0.0115813645 RIJScale=0.5291772086
****
H 
PQN=1 NValence=1 F0ss=0.4305859188 ZetaOverlap=1.2049882087 U=-0.4189691428
Beta=-0.2161095214 CoreKO=1.0488708569 KON=0,0,0,1.0171631126 KON=1,0,1,1.0589197790
KON=0,1,1,1.0589197790 KON=2,1,1,1.0589197790 EISol=-0.4188110042 EHeat=0.0830298228
Alpha=1.5252601686
GCore=0.0085277107,1.4001425905,2.2633912063
GCore=0.0003382177,1.4294003553,3.5354159128
GCore=-0.0013139269,0.5600570362,3.9684248791
****
C 
PQN=2,2 NValence=4 F0ss=0.4478367758 F0sp=0.4215147623 F0pp=0.3759224541 F2pp=0.1801054510
G1sp=0.2613968729
ZetaOverlap=1.8226714975,1.5637296242
U=-1.9663092920,-1.4679628191
Beta=-0.6190518029,-0.2836784428 DDN=0,1,0.8458762323 DDN=1,1,0.7060741323
CoreKO=1.0449172975 KON=0,0,0,1.1124284736 KON=1,0,1,0.8484813696 KON=0,1,1,1.1399886655
KON=2,1,1,0.7783928119 EISol=-4.4398989268 EHeat=0.2723305520 Alpha=1.4014062429
DipHyp=1.6472524267
GCore=0.0007885612,1.4052753055,3.5013577594
GCore=0.0033292985,1.4001425905,3.4959933458
GCore=-0.0013196868,1.4211052049,3.9077570272
GCore=-0.0000892872,1.3774926461,5.0077742521
****
S 
PQN=3,3 NValence=6 F0ss=0.4331396397 F0sp=0.3188254963 F0pp=0.3136271218 F2pp=0.3456917167
G1sp=0.2791629797
ZetaOverlap=2.2928078760,1.7303847570,0.9805994118
U=-2.1542460346,-1.7903186861
Beta=-0.1472236126,-0.2905136336 DDN=0,1,0.8980720022 DDN=1,1,1.0036329000
CoreKO=1.2938683185 KON=0,0,0,1.0797469645 KON=1,0,1,0.8675650550 KON=0,1,1,1.1543033468
KON=2,1,1,0.8057671925 EISol=-7.0460287497 EHeat=0.1058151363 Alpha=1.2170196144
DipHyp=1.8465428726
GCore=-0.0317270650,1.2863644833,1.5491231084
GCore=-0.0008238398,1.6425719595,2.9558459823
GCore=0.0008565489,3.7964407093,3.8030664189
****

--Link1--
%chk=best
#P AM1(Input,Print) CIS(Singlets,NStates=0) pop(full) freq geom=Checkpoint

best1

0 1
6        0.921618    -0.670117     0.020801
6       -0.410169    -1.221603    -0.068712
6       -0.367467     1.273336     0.106748
6        0.876758     0.735820    -0.009506
1        1.783452     1.364664    -0.067368
1       -0.568059     2.309153     0.217069
1       -0.552588    -2.276715     0.092619
1        1.756952    -1.283326    -0.072308
16       -1.680645     0.076370    -0.163623

Method=8 CoreType=1 PeptideFC=0.0115813645 RIJScale=0.5291772086
****
H 
PQN=1 NValence=1 F0ss=0.4305859188 ZetaOverlap=1.2049882087 U=-0.4189691428
Beta=-0.2161095214 CoreKO=1.0488708569 KON=0,0,0,1.0171631126 KON=1,0,1,1.0589197790
KON=0,1,1,1.0589197790 KON=2,1,1,1.0589197790 EISol=-0.4188110042 EHeat=0.0830298228
Alpha=1.5252601686
GCore=0.0085277107,1.4001425905,2.2633912063
GCore=0.0003382177,1.4294003553,3.5354159128
GCore=-0.0013139269,0.5600570362,3.9684248791
****
C 
PQN=2,2 NValence=4 F0ss=0.4478367758 F0sp=0.4215147623 F0pp=0.3759224541 F2pp=0.1801054510
G1sp=0.2613968729
ZetaOverlap=1.8226714975,1.5637296242
U=-1.9663092920,-1.4679628191
Beta=-0.6190518029,-0.2836784428 DDN=0,1,0.8458762323 DDN=1,1,0.7060741323
CoreKO=1.0449172975 KON=0,0,0,1.1124284736 KON=1,0,1,0.8484813696 KON=0,1,1,1.1399886655
KON=2,1,1,0.7783928119 EISol=-4.4398989268 EHeat=0.2723305520 Alpha=1.4014062429
DipHyp=1.6472524267
GCore=0.0007885612,1.4052753055,3.5013577594
GCore=0.0033292985,1.4001425905,3.4959933458
GCore=-0.0013196868,1.4211052049,3.9077570272
GCore=-0.0000892872,1.3774926461,5.0077742521
****
S 
PQN=3,3 NValence=6 F0ss=0.4331396397 F0sp=0.3188254963 F0pp=0.3136271218 F2pp=0.3456917167
G1sp=0.2791629797
ZetaOverlap=2.2928078760,1.7303847570,0.9805994118
U=-2.1542460346,-1.7903186861
Beta=-0.1472236126,-0.2905136336 DDN=0,1,0.8980720022 DDN=1,1,1.0036329000
CoreKO=1.2938683185 KON=0,0,0,1.0797469645 KON=1,0,1,0.8675650550 KON=0,1,1,1.1543033468
KON=2,1,1,0.8057671925 EISol=-7.0460287497 EHeat=0.1058151363 Alpha=1.2170196144
DipHyp=1.8465428726
GCore=-0.0317270650,1.2863644833,1.5491231084
GCore=-0.0008238398,1.6425719595,2.9558459823
GCore=0.0008565489,3.7964407093,3.8030664189
****

