#P AM1(Input,Print) opt

best

0 1
6        0.927581    -0.763957     0.013303
6       -0.401806    -1.239261     0.015705
6       -0.355573     1.293183     0.058104
6        0.857342     0.676324     0.012843
1        1.783538     1.324363    -0.106426
1       -0.569816     2.374563     0.225998
1       -0.579907    -2.293413     0.127337
1        1.774584    -1.277269    -0.035359
16       -1.625102     0.066773    -0.110984

Method=8 CoreType=1 PeptideFC=0.0107799116 RIJScale=0.5291772086
****
H 
PQN=1 NValence=1 F0ss=0.4721553327 ZetaOverlap=1.2834277808 U=-0.4188110042
Beta=-0.2268825074 CoreKO=1.0589197790 KON=0,0,0,1.0589197790 KON=1,0,1,1.0678914578
KON=0,1,1,0.9991877409 KON=2,1,1,1.0482727950 EISol=-0.4188110042 EHeat=0.0830298228
Alpha=1.5697008096
GCore=0.0085277107,1.5022803151,2.2676713595
GCore=0.0003481659,1.4001425905,3.4015070392
GCore=-0.0012733648,0.5382405043,3.7912913148
****
C 
PQN=2,2 NValence=4 F0ss=0.4581203714 F0sp=0.4551311508 F0pp=0.3768030831 F2pp=0.1898715146
G1sp=0.2577005483
ZetaOverlap=1.7959818712,1.6022741171
U=-1.9622063813,-1.4557965594
Beta=-0.5913802681,-0.2836784428 DDN=0,1,0.8556599190 DDN=1,1,0.7190140577
CoreKO=1.0843477999 KON=0,0,0,1.1742403799 KON=1,0,1,0.8219701441 KON=0,1,1,1.0386578133
KON=2,1,1,0.7783928119 EISol=-4.4398989268 EHeat=0.2723305520 Alpha=1.4014062429
DipHyp=1.5739702450
GCore=0.0007885612,1.4001425905,3.0235618126
GCore=0.0027097888,1.5281570636,3.4959933458
GCore=-0.0014774999,1.3110293289,3.8274143832
GCore=-0.0000873394,1.4001425905,5.0077742521
****
S 
PQN=3,3 NValence=6 F0ss=0.4364624013 F0sp=0.3183640731 F0pp=0.3136271218 F2pp=0.3456917167
G1sp=0.2964482287
ZetaOverlap=2.3061447044,1.6672630000,1.0255342438
U=-2.0270271906,-1.7796976476
Beta=-0.1387870751,-0.2905136336 DDN=0,1,0.8912644417 DDN=1,1,0.9573921396
CoreKO=1.1543033468 KON=0,0,0,1.1590494055 KON=1,0,1,0.8464368816 KON=0,1,1,1.1643486136
KON=2,1,1,0.7746001785 EISol=-7.0460287497 EHeat=0.1058151363 Alpha=1.2167665550
DipHyp=1.8007493954
GCore=-0.0301103914,1.2863644833,1.4919778348
GCore=-0.0008024464,1.4979177626,2.8887298674
GCore=0.0007987635,3.9199477853,3.7967867236
****

--Link1--
#P AM1(Input,Print) CIS(Singlets,NStates=10) pop(full) freq

best1

0 1
6        0.927581    -0.763957     0.013303
6       -0.401806    -1.239261     0.015705
6       -0.355573     1.293183     0.058104
6        0.857342     0.676324     0.012843
1        1.783538     1.324363    -0.106426
1       -0.569816     2.374563     0.225998
1       -0.579907    -2.293413     0.127337
1        1.774584    -1.277269    -0.035359
16       -1.625102     0.066773    -0.110984

Method=8 CoreType=1 PeptideFC=0.0107799116 RIJScale=0.5291772086
****
H 
PQN=1 NValence=1 F0ss=0.4721553327 ZetaOverlap=1.2834277808 U=-0.4188110042
Beta=-0.2268825074 CoreKO=1.0589197790 KON=0,0,0,1.0589197790 KON=1,0,1,1.0678914578
KON=0,1,1,0.9991877409 KON=2,1,1,1.0482727950 EISol=-0.4188110042 EHeat=0.0830298228
Alpha=1.5697008096
GCore=0.0085277107,1.5022803151,2.2676713595
GCore=0.0003481659,1.4001425905,3.4015070392
GCore=-0.0012733648,0.5382405043,3.7912913148
****
C 
PQN=2,2 NValence=4 F0ss=0.4581203714 F0sp=0.4551311508 F0pp=0.3768030831 F2pp=0.1898715146
G1sp=0.2577005483
ZetaOverlap=1.7959818712,1.6022741171
U=-1.9622063813,-1.4557965594
Beta=-0.5913802681,-0.2836784428 DDN=0,1,0.8556599190 DDN=1,1,0.7190140577
CoreKO=1.0843477999 KON=0,0,0,1.1742403799 KON=1,0,1,0.8219701441 KON=0,1,1,1.0386578133
KON=2,1,1,0.7783928119 EISol=-4.4398989268 EHeat=0.2723305520 Alpha=1.4014062429
DipHyp=1.5739702450
GCore=0.0007885612,1.4001425905,3.0235618126
GCore=0.0027097888,1.5281570636,3.4959933458
GCore=-0.0014774999,1.3110293289,3.8274143832
GCore=-0.0000873394,1.4001425905,5.0077742521
****
S 
PQN=3,3 NValence=6 F0ss=0.4364624013 F0sp=0.3183640731 F0pp=0.3136271218 F2pp=0.3456917167
G1sp=0.2964482287
ZetaOverlap=2.3061447044,1.6672630000,1.0255342438
U=-2.0270271906,-1.7796976476
Beta=-0.1387870751,-0.2905136336 DDN=0,1,0.8912644417 DDN=1,1,0.9573921396
CoreKO=1.1543033468 KON=0,0,0,1.1590494055 KON=1,0,1,0.8464368816 KON=0,1,1,1.1643486136
KON=2,1,1,0.7746001785 EISol=-7.0460287497 EHeat=0.1058151363 Alpha=1.2167665550
DipHyp=1.8007493954
GCore=-0.0301103914,1.2863644833,1.4919778348
GCore=-0.0008024464,1.4979177626,2.8887298674
GCore=0.0007987635,3.9199477853,3.7967867236
****

