#P AM1(Input,Print) opt

best

0 1
6        0.874634    -0.654928     0.023867
6       -0.428309    -1.232437    -0.011824
6       -0.317074     1.285286     0.117600
6        0.889386     0.740231    -0.006814
1        1.786356     1.326574    -0.002963
1       -0.569221     2.323294     0.204625
1       -0.606647    -2.281913     0.114140
1        1.823237    -1.188848    -0.046778
16       -1.578742     0.038282    -0.116668

Method=8 CoreType=1 PeptideFC=0.0114505045 RIJScale=0.5291772086
****
H 
PQN=1 NValence=1 F0ss=0.4721553327 ZetaOverlap=1.1880780000 U=-0.3969075184
Beta=-0.2268825074 CoreKO=1.0589197790 KON=0,0,0,1.0589197790 KON=1,0,1,1.0589197790
KON=0,1,1,1.0589197790 KON=2,1,1,1.0589197790 EISol=-0.4188110042 EHeat=0.0830298228
Alpha=1.5252601686
GCore=0.0076202981,1.4001425905,2.2676713595
GCore=0.0003534810,1.4001425905,3.4015070392
GCore=-0.0012733648,0.5600570362,4.0533982428
****
C 
PQN=2,2 NValence=4 F0ss=0.4494442496 F0sp=0.4215147623 F0pp=0.3768030831 F2pp=0.1898715146
G1sp=0.2679025821
ZetaOverlap=1.8086650000,1.6851160000
U=-1.9237066217,-1.4557965594
Beta=-0.5775444233,-0.2836784428 DDN=0,1,0.8236736000 DDN=1,1,0.7242431475
CoreKO=1.1124284736 KON=0,0,0,1.1124284736 KON=1,0,1,0.8219701441 KON=0,1,1,1.1124284736
KON=2,1,1,0.7783928119 EISol=-4.4398989268 EHeat=0.2723305520 Alpha=1.4014062429
DipHyp=1.6472524267
GCore=0.0007885612,1.4001425905,3.0235618126
GCore=0.0031892455,1.4001425905,3.4959933458
GCore=-0.0013931594,1.4001425905,3.8739385724
GCore=-0.0000875022,1.4001425905,5.0077742521
****
S 
PQN=3,3 NValence=6 F0ss=0.4331396397 F0sp=0.3183640731 F0pp=0.3136271218 F2pp=0.3791170965
G1sp=0.2791629797
ZetaOverlap=2.3665150000,1.6672630000,1.0000000000
U=-2.0834683120,-1.7903186861
Beta=-0.1440781557,-0.2905136336 DDN=0,1,0.8587275484 DDN=1,1,1.0036329000
CoreKO=1.1543033468 KON=0,0,0,1.1543033468 KON=1,0,1,0.8464368816 KON=0,1,1,1.1543033468
KON=2,1,1,0.7746001785 EISol=-7.0460287497 EHeat=0.1058151363 Alpha=1.2911422608
DipHyp=1.8007493954
GCore=-0.0353616377,1.2863644833,1.4563457902
GCore=-0.0008238398,1.6425719595,2.8408498620
GCore=0.0008565489,3.7602184278,3.7967867236
****

--Link1--
#P AM1(Input,Print) CIS(Singlets,NStates=10) pop(full) freq

best1

0 1
6        0.874634    -0.654928     0.023867
6       -0.428309    -1.232437    -0.011824
6       -0.317074     1.285286     0.117600
6        0.889386     0.740231    -0.006814
1        1.786356     1.326574    -0.002963
1       -0.569221     2.323294     0.204625
1       -0.606647    -2.281913     0.114140
1        1.823237    -1.188848    -0.046778
16       -1.578742     0.038282    -0.116668

Method=8 CoreType=1 PeptideFC=0.0114505045 RIJScale=0.5291772086
****
H 
PQN=1 NValence=1 F0ss=0.4721553327 ZetaOverlap=1.1880780000 U=-0.3969075184
Beta=-0.2268825074 CoreKO=1.0589197790 KON=0,0,0,1.0589197790 KON=1,0,1,1.0589197790
KON=0,1,1,1.0589197790 KON=2,1,1,1.0589197790 EISol=-0.4188110042 EHeat=0.0830298228
Alpha=1.5252601686
GCore=0.0076202981,1.4001425905,2.2676713595
GCore=0.0003534810,1.4001425905,3.4015070392
GCore=-0.0012733648,0.5600570362,4.0533982428
****
C 
PQN=2,2 NValence=4 F0ss=0.4494442496 F0sp=0.4215147623 F0pp=0.3768030831 F2pp=0.1898715146
G1sp=0.2679025821
ZetaOverlap=1.8086650000,1.6851160000
U=-1.9237066217,-1.4557965594
Beta=-0.5775444233,-0.2836784428 DDN=0,1,0.8236736000 DDN=1,1,0.7242431475
CoreKO=1.1124284736 KON=0,0,0,1.1124284736 KON=1,0,1,0.8219701441 KON=0,1,1,1.1124284736
KON=2,1,1,0.7783928119 EISol=-4.4398989268 EHeat=0.2723305520 Alpha=1.4014062429
DipHyp=1.6472524267
GCore=0.0007885612,1.4001425905,3.0235618126
GCore=0.0031892455,1.4001425905,3.4959933458
GCore=-0.0013931594,1.4001425905,3.8739385724
GCore=-0.0000875022,1.4001425905,5.0077742521
****
S 
PQN=3,3 NValence=6 F0ss=0.4331396397 F0sp=0.3183640731 F0pp=0.3136271218 F2pp=0.3791170965
G1sp=0.2791629797
ZetaOverlap=2.3665150000,1.6672630000,1.0000000000
U=-2.0834683120,-1.7903186861
Beta=-0.1440781557,-0.2905136336 DDN=0,1,0.8587275484 DDN=1,1,1.0036329000
CoreKO=1.1543033468 KON=0,0,0,1.1543033468 KON=1,0,1,0.8464368816 KON=0,1,1,1.1543033468
KON=2,1,1,0.7746001785 EISol=-7.0460287497 EHeat=0.1058151363 Alpha=1.2911422608
DipHyp=1.8007493954
GCore=-0.0353616377,1.2863644833,1.4563457902
GCore=-0.0008238398,1.6425719595,2.8408498620
GCore=0.0008565489,3.7602184278,3.7967867236
****

