%chk=best
#P AM1(Input,Print) opt

best

0 1
6        0.919518    -0.675724     0.003566
6       -0.490910    -1.234199     0.004582
6       -0.379197     1.320087    -0.001364
6        0.914488     0.666233     0.043193
1        1.767865     1.325068    -0.005890
1       -0.576906     2.366865     0.249339
1       -0.622552    -2.273453     0.153516
1        1.757130    -1.228273    -0.004391
16       -1.597790     0.064466    -0.105987

Method=8 CoreType=1 PeptideFC=0.0103857720 RIJScale=0.5302093464
****
H 
PQN=1 NValence=1 F0ss=0.4518337300 ZetaOverlap=1.1180949616 U=-0.4334099062
Beta=-0.2537098143 CoreKO=0.9005820729 KON=0,0,0,0.8387639208 KON=1,0,1,1.0061236865
KON=0,1,1,0.9519998753 KON=2,1,1,0.8909335325 EISol=-0.4188110042 EHeat=0.0830298228
Alpha=1.5310164411
GCore=0.0091608161,1.3174322352,2.2970538991
GCore=0.0004020760,1.4478402069,2.9969436701
GCore=-0.0013665736,0.5364148598,3.9422854262
****
C 
PQN=2,2 NValence=4 F0ss=0.4519001705 F0sp=0.4285551882 F0pp=0.3768030831 F2pp=0.1887904774
G1sp=0.2707101669
ZetaOverlap=1.6713441132,1.6619479320
U=-1.6695266360,-1.5233063179
Beta=-0.5354368758,-0.2699809230 DDN=0,1,0.8755904971 DDN=1,1,0.8085862298
CoreKO=0.9787444290 KON=0,0,0,0.7703920736 KON=1,0,1,0.8219701441 KON=0,1,1,1.1209152651
KON=2,1,1,0.8063938609 EISol=-4.4398989268 EHeat=0.2723305520 Alpha=1.4050357334
DipHyp=1.6295519597
GCore=0.0007312717,1.1508639233,3.2245509055
GCore=0.0030126149,1.2502003226,3.2754418495
GCore=-0.0011285243,1.2958154043,3.2739205023
GCore=-0.0000824483,1.3074822716,4.2942720249
****
S 
PQN=3,3 NValence=6 F0ss=0.4458649797 F0sp=0.2366228452 F0pp=0.3121966002 F2pp=0.2919809126
G1sp=0.2791629797
ZetaOverlap=2.5310332013,1.7221825933,0.9154880128
U=-2.2041365964,-1.6851031955
Beta=-0.1119258746,-0.3083200923 DDN=0,1,0.9816572121 DDN=1,1,0.9152918669
CoreKO=1.2948564106 KON=0,0,0,1.1043994356 KON=1,0,1,0.8972667233 KON=0,1,1,1.0892901224
KON=2,1,1,0.7261345414 EISol=-7.0460287497 EHeat=0.1058151363 Alpha=1.2451903982
DipHyp=1.5391886449
GCore=-0.0363835713,1.5482749247,1.3933854582
GCore=-0.0006708644,1.6139326398,2.8276573154
GCore=0.0007304853,3.5945697527,3.7565787057
****

--Link1--
%chk=best
#P AM1(Input,Print) CIS(Singlets,NStates=10) pop(full) freq geom=Checkpoint

best1

0 1

Method=8 CoreType=1 PeptideFC=0.0103857720 RIJScale=0.5302093464
****
H 
PQN=1 NValence=1 F0ss=0.4518337300 ZetaOverlap=1.1180949616 U=-0.4334099062
Beta=-0.2537098143 CoreKO=0.9005820729 KON=0,0,0,0.8387639208 KON=1,0,1,1.0061236865
KON=0,1,1,0.9519998753 KON=2,1,1,0.8909335325 EISol=-0.4188110042 EHeat=0.0830298228
Alpha=1.5310164411
GCore=0.0091608161,1.3174322352,2.2970538991
GCore=0.0004020760,1.4478402069,2.9969436701
GCore=-0.0013665736,0.5364148598,3.9422854262
****
C 
PQN=2,2 NValence=4 F0ss=0.4519001705 F0sp=0.4285551882 F0pp=0.3768030831 F2pp=0.1887904774
G1sp=0.2707101669
ZetaOverlap=1.6713441132,1.6619479320
U=-1.6695266360,-1.5233063179
Beta=-0.5354368758,-0.2699809230 DDN=0,1,0.8755904971 DDN=1,1,0.8085862298
CoreKO=0.9787444290 KON=0,0,0,0.7703920736 KON=1,0,1,0.8219701441 KON=0,1,1,1.1209152651
KON=2,1,1,0.8063938609 EISol=-4.4398989268 EHeat=0.2723305520 Alpha=1.4050357334
DipHyp=1.6295519597
GCore=0.0007312717,1.1508639233,3.2245509055
GCore=0.0030126149,1.2502003226,3.2754418495
GCore=-0.0011285243,1.2958154043,3.2739205023
GCore=-0.0000824483,1.3074822716,4.2942720249
****
S 
PQN=3,3 NValence=6 F0ss=0.4458649797 F0sp=0.2366228452 F0pp=0.3121966002 F2pp=0.2919809126
G1sp=0.2791629797
ZetaOverlap=2.5310332013,1.7221825933,0.9154880128
U=-2.2041365964,-1.6851031955
Beta=-0.1119258746,-0.3083200923 DDN=0,1,0.9816572121 DDN=1,1,0.9152918669
CoreKO=1.2948564106 KON=0,0,0,1.1043994356 KON=1,0,1,0.8972667233 KON=0,1,1,1.0892901224
KON=2,1,1,0.7261345414 EISol=-7.0460287497 EHeat=0.1058151363 Alpha=1.2451903982
DipHyp=1.5391886449
GCore=-0.0363835713,1.5482749247,1.3933854582
GCore=-0.0006708644,1.6139326398,2.8276573154
GCore=0.0007304853,3.5945697527,3.7565787057
****

