%Chk=freq
#P AM1(Input,Print) opt

best

0 1
6        0.868397    -0.688663     0.015808
6       -0.363541    -1.293981    -0.026504
6       -0.351293     1.284838     0.093782
6        0.868205     0.744166    -0.064827
1        1.776509     1.351092    -0.020496
1       -0.570333     2.326340     0.154027
1       -0.630247    -2.294702     0.130421
1        1.780711    -1.220592    -0.118390
16       -1.599485     0.043477    -0.137249

Method=8 CoreType=1 PeptideFC=0.0130054926 RIJScale=0.4887302135
****
H 
PQN=1 NValence=1 F0ss=0.4718180406 ZetaOverlap=1.2063753890 U=-0.4026844113
Beta=-0.2375061252 CoreKO=1.1156935984 KON=0,0,0,1.0502004605 KON=1,0,1,0.9635810405
KON=0,1,1,0.9330514775 KON=2,1,1,1.0163059844 EISol=-0.4188110042 EHeat=0.0830298228
Alpha=1.5325669538
GCore=0.0077972409,1.3730785483,2.0856466358
GCore=0.0002914631,1.1111893878,3.4323667483
GCore=-0.0013710866,0.6263466706,3.8061403854
****
C 
PQN=2,2 NValence=4 F0ss=0.4414293821 F0sp=0.4326790039 F0pp=0.3572497418 F2pp=0.2647976831
G1sp=0.2634149259
ZetaOverlap=1.7362973768,1.4000694049
U=-1.8762342383,-1.4260254375
Beta=-0.5795077006,-0.3444706868 DDN=0,1,0.7210584891 DDN=1,1,0.8450245162
CoreKO=1.1744187079 KON=0,0,0,1.0278175134 KON=1,0,1,0.8693172390 KON=0,1,1,0.8629983758
KON=2,1,1,0.6994472246 EISol=-4.4398989268 EHeat=0.2723305520 Alpha=1.4189169450
DipHyp=1.3642586592
GCore=0.0008728220,1.1251244275,2.8122930267
GCore=0.0032623705,1.0881672798,3.9097056648
GCore=-0.0012619178,1.3179203212,3.6583902124
GCore=-0.0001042443,1.0588327379,4.7350277079
****
S 
PQN=3,3 NValence=6 F0ss=0.4504516255 F0sp=0.3278525659 F0pp=0.3178991935 F2pp=0.2783203788
G1sp=0.2994566759
ZetaOverlap=2.2203118665,1.5881872395,1.0271293280
U=-2.2003585331,-1.8080890038
Beta=-0.1918869010,-0.2888968783 DDN=0,1,0.9096756330 DDN=1,1,1.0465594377
CoreKO=1.2688604297 KON=0,0,0,1.0039216616 KON=1,0,1,0.8467026664 KON=0,1,1,0.8718632047
KON=2,1,1,0.7421927012 EISol=-7.0460287497 EHeat=0.1058151363 Alpha=1.2475155193
DipHyp=1.7783388304
GCore=-0.0427564146,1.1863026460,1.1122669290
GCore=-0.0009262104,1.7337505786,3.0374147736
GCore=0.0007715030,3.5545222057,4.4470906627
****

--Link1--
%Chk=freq
#P AM1(Input,Print) CIS(Singlets,NStates=10) pop(full) Geom=Checkpoint freq

best1

0 1

Method=8 CoreType=1 PeptideFC=0.0130054926 RIJScale=0.4887302135
****
H 
PQN=1 NValence=1 F0ss=0.4718180406 ZetaOverlap=1.2063753890 U=-0.4026844113
Beta=-0.2375061252 CoreKO=1.1156935984 KON=0,0,0,1.0502004605 KON=1,0,1,0.9635810405
KON=0,1,1,0.9330514775 KON=2,1,1,1.0163059844 EISol=-0.4188110042 EHeat=0.0830298228
Alpha=1.5325669538
GCore=0.0077972409,1.3730785483,2.0856466358
GCore=0.0002914631,1.1111893878,3.4323667483
GCore=-0.0013710866,0.6263466706,3.8061403854
****
C 
PQN=2,2 NValence=4 F0ss=0.4414293821 F0sp=0.4326790039 F0pp=0.3572497418 F2pp=0.2647976831
G1sp=0.2634149259
ZetaOverlap=1.7362973768,1.4000694049
U=-1.8762342383,-1.4260254375
Beta=-0.5795077006,-0.3444706868 DDN=0,1,0.7210584891 DDN=1,1,0.8450245162
CoreKO=1.1744187079 KON=0,0,0,1.0278175134 KON=1,0,1,0.8693172390 KON=0,1,1,0.8629983758
KON=2,1,1,0.6994472246 EISol=-4.4398989268 EHeat=0.2723305520 Alpha=1.4189169450
DipHyp=1.3642586592
GCore=0.0008728220,1.1251244275,2.8122930267
GCore=0.0032623705,1.0881672798,3.9097056648
GCore=-0.0012619178,1.3179203212,3.6583902124
GCore=-0.0001042443,1.0588327379,4.7350277079
****
S 
PQN=3,3 NValence=6 F0ss=0.4504516255 F0sp=0.3278525659 F0pp=0.3178991935 F2pp=0.2783203788
G1sp=0.2994566759
ZetaOverlap=2.2203118665,1.5881872395,1.0271293280
U=-2.2003585331,-1.8080890038
Beta=-0.1918869010,-0.2888968783 DDN=0,1,0.9096756330 DDN=1,1,1.0465594377
CoreKO=1.2688604297 KON=0,0,0,1.0039216616 KON=1,0,1,0.8467026664 KON=0,1,1,0.8718632047
KON=2,1,1,0.7421927012 EISol=-7.0460287497 EHeat=0.1058151363 Alpha=1.2475155193
DipHyp=1.7783388304
GCore=-0.0427564146,1.1863026460,1.1122669290
GCore=-0.0009262104,1.7337505786,3.0374147736
GCore=0.0007715030,3.5545222057,4.4470906627
****

