#P AM1(Input,Print) opt

best

0 1
6        0.930909    -0.660233     0.038852
6       -0.393163    -1.240325     0.020890
6       -0.366368     1.285513     0.011348
6        0.881216     0.730970    -0.005980
1        1.803253     1.334508     0.073480
1       -0.578384     2.338835     0.226409
1       -0.627813    -2.279891     0.122296
1        1.746458    -1.271065    -0.070695
16       -1.570817     0.057943    -0.188088

Method=8 CoreType=1 PeptideFC=0.0112203961 RIJScale=0.5522757898
****
H 
PQN=1 NValence=1 F0ss=0.4431930392 ZetaOverlap=1.1444272044 U=-0.3967803361
Beta=-0.2268825074 CoreKO=1.0155828640 KON=0,0,0,1.0589197790 KON=1,0,1,1.0275615041
KON=0,1,1,0.9517159419 KON=2,1,1,1.2410519425 EISol=-0.4188110042 EHeat=0.0830298228
Alpha=1.5164135668
GCore=0.0085277107,1.4001425905,2.2676713595
GCore=0.0003688382,1.4488929181,3.0283639119
GCore=-0.0012654744,0.5275587578,4.1768486207
****
C 
PQN=2,2 NValence=4 F0ss=0.4595994382 F0sp=0.4231873996 F0pp=0.3670926435 F2pp=0.1992975098
G1sp=0.2895364815
ZetaOverlap=1.7820625791,1.6046009139
U=-1.9120180828,-1.4633913804
Beta=-0.5892245496,-0.3072005272 DDN=0,1,0.8236736000 DDN=1,1,0.6000138716
CoreKO=1.1280973646 KON=0,0,0,1.1409021882 KON=1,0,1,0.8187327180 KON=0,1,1,1.0265390397
KON=2,1,1,0.8004198848 EISol=-4.4398989268 EHeat=0.2723305520 Alpha=1.4014062429
DipHyp=1.6472524267
GCore=0.0007446140,1.2406737893,2.9325399988
GCore=0.0035006625,1.2982200281,3.2019472774
GCore=-0.0015088646,1.4498056077,3.9354310500
GCore=-0.0000899151,1.3483481228,5.0872487481
****
S 
PQN=3,3 NValence=6 F0ss=0.4188959505 F0sp=0.3095097766 F0pp=0.2997836848 F2pp=0.3279657892
G1sp=0.2791629797
ZetaOverlap=2.4019665167,1.6672630000,1.1051423830
U=-2.0651147262,-1.7610276926
Beta=-0.1797953746,-0.3394782231 DDN=0,1,0.9266104423 DDN=1,1,0.9770400393
CoreKO=1.1543033468 KON=0,0,0,1.1371594453 KON=1,0,1,0.8368128680 KON=0,1,1,0.9746441775
KON=2,1,1,0.6397877551 EISol=-7.0460287497 EHeat=0.1058151363 Alpha=1.1668634532
DipHyp=1.7860902619
GCore=-0.0358700554,1.2853260467,1.4045410437
GCore=-0.0008600609,1.6425719595,3.0053641989
GCore=0.0008729786,4.1982971933,3.7721300573
****

--Link1--
#P AM1(Input,Print) CIS(Singlets,NStates=10) pop(full) freq

best1

0 1
6        0.930909    -0.660233     0.038852
6       -0.393163    -1.240325     0.020890
6       -0.366368     1.285513     0.011348
6        0.881216     0.730970    -0.005980
1        1.803253     1.334508     0.073480
1       -0.578384     2.338835     0.226409
1       -0.627813    -2.279891     0.122296
1        1.746458    -1.271065    -0.070695
16       -1.570817     0.057943    -0.188088

Method=8 CoreType=1 PeptideFC=0.0112203961 RIJScale=0.5522757898
****
H 
PQN=1 NValence=1 F0ss=0.4431930392 ZetaOverlap=1.1444272044 U=-0.3967803361
Beta=-0.2268825074 CoreKO=1.0155828640 KON=0,0,0,1.0589197790 KON=1,0,1,1.0275615041
KON=0,1,1,0.9517159419 KON=2,1,1,1.2410519425 EISol=-0.4188110042 EHeat=0.0830298228
Alpha=1.5164135668
GCore=0.0085277107,1.4001425905,2.2676713595
GCore=0.0003688382,1.4488929181,3.0283639119
GCore=-0.0012654744,0.5275587578,4.1768486207
****
C 
PQN=2,2 NValence=4 F0ss=0.4595994382 F0sp=0.4231873996 F0pp=0.3670926435 F2pp=0.1992975098
G1sp=0.2895364815
ZetaOverlap=1.7820625791,1.6046009139
U=-1.9120180828,-1.4633913804
Beta=-0.5892245496,-0.3072005272 DDN=0,1,0.8236736000 DDN=1,1,0.6000138716
CoreKO=1.1280973646 KON=0,0,0,1.1409021882 KON=1,0,1,0.8187327180 KON=0,1,1,1.0265390397
KON=2,1,1,0.8004198848 EISol=-4.4398989268 EHeat=0.2723305520 Alpha=1.4014062429
DipHyp=1.6472524267
GCore=0.0007446140,1.2406737893,2.9325399988
GCore=0.0035006625,1.2982200281,3.2019472774
GCore=-0.0015088646,1.4498056077,3.9354310500
GCore=-0.0000899151,1.3483481228,5.0872487481
****
S 
PQN=3,3 NValence=6 F0ss=0.4188959505 F0sp=0.3095097766 F0pp=0.2997836848 F2pp=0.3279657892
G1sp=0.2791629797
ZetaOverlap=2.4019665167,1.6672630000,1.1051423830
U=-2.0651147262,-1.7610276926
Beta=-0.1797953746,-0.3394782231 DDN=0,1,0.9266104423 DDN=1,1,0.9770400393
CoreKO=1.1543033468 KON=0,0,0,1.1371594453 KON=1,0,1,0.8368128680 KON=0,1,1,0.9746441775
KON=2,1,1,0.6397877551 EISol=-7.0460287497 EHeat=0.1058151363 Alpha=1.1668634532
DipHyp=1.7860902619
GCore=-0.0358700554,1.2853260467,1.4045410437
GCore=-0.0008600609,1.6425719595,3.0053641989
GCore=0.0008729786,4.1982971933,3.7721300573
****


