%chk=best
#P AM1(Input,Print) opt

best

0 1
6        1.285990    -0.720757     0.000378
6        0.044398    -1.270790    -0.000306
6        0.043346     1.271010     0.000159
6        1.285560     0.721396    -0.000016
1        2.191630     1.311490    -0.001249
1       -0.237466     2.310600    -0.000594
1       -0.235588    -2.310550    -0.000712
1        2.192410    -1.310360     0.000363
16       -1.241670    -0.000393     0.000056

Method=8 CoreType=1 PeptideFC=0.0109931000 RIJScale=0.5751390573
****
H 
PQN=1 NValence=1 F0ss=0.4029440000 ZetaOverlap=1.1837742193 U=-0.4188110000
Beta=-0.2268830000 CoreKO=1.0804500000 KON=0,0,0,1.0589200000 KON=1,0,1,0.9196328074
KON=0,1,1,1.2842308441 KON=2,1,1,1.0589200000 EISol=-0.4188110042 EHeat=0.0830298228
Alpha=1.5252600000
GCore=0.0093122953,1.4869373271,2.2725000000
GCore=0.0004584830,1.4001400000,3.6227635356
GCore=-0.0014253211,0.4554718939,3.7486200000
****
C 
PQN=2,2 NValence=4 F0ss=0.4644160000 F0sp=0.4215150000 F0pp=0.3768030000 F2pp=0.1849020000
G1sp=0.2698927751
ZetaOverlap=1.7549900000,1.7248462580
U=-1.9120200000,-1.4558000000
Beta=-0.5775440000,-0.2836780000 DDN=0,1,0.7636296697 DDN=1,1,0.7268010000
CoreKO=1.1124300000 KON=0,0,0,1.0219941783 KON=1,0,1,0.7733408738 KON=0,1,1,1.1239631764
KON=2,1,1,0.8183414075 EISol=-4.4398989268 EHeat=0.2723305520 Alpha=1.4014100000
DipHyp=1.7460380812
GCore=0.0007540190,1.5012893636,3.0188800000
GCore=0.0033165515,1.4375153452,3.1761762549
GCore=-0.0014298200,1.6105409055,3.5549900000
GCore=-0.0000826432,1.3981766024,4.9134183474
****
S 
PQN=3,3 NValence=6 F0ss=0.3890139913 F0sp=0.3183640000 F0pp=0.3136270000 F2pp=0.3415722320
G1sp=0.2874190000
ZetaOverlap=2.2802800000,1.6672600000,0.9327460000
U=-2.1501855485,-1.7903200000
Beta=-0.1638875398,-0.2810990000 DDN=0,1,0.9357514388 DDN=1,1,0.9527838194
CoreKO=1.1851800000 KON=0,0,0,1.0739484755 KON=1,0,1,0.8584030000 KON=0,1,1,1.0746600000
KON=2,1,1,0.7636310000 EISol=-7.0460287497 EHeat=0.1058151363 Alpha=1.3026500000
DipHyp=1.8585800000
GCore=-0.0309912384,1.3464809406,1.4575268029
GCore=-0.0008406850,1.6470799558,1.8670431238
GCore=0.0009214040,3.4180200000,3.7499100000
****

--Link1--
%chk=best
#P AM1(Input,Print) opt

best

0 1
6        1.285990    -0.720757     0.000378
6        0.044398    -1.270790    -0.000306
6        0.043346     1.271010     0.000159
6        1.285560     0.721396    -0.000016
1        2.191630     1.311490    -0.001249
1       -0.237466     2.310600    -0.000594
1       -0.235588    -2.310550    -0.000712
1        2.192410    -1.310360     0.000363
16       -1.241670    -0.000393     0.000056

Method=8 CoreType=1 PeptideFC=0.0109931000 RIJScale=0.5751390573
****
H 
PQN=1 NValence=1 F0ss=0.4029440000 ZetaOverlap=1.1837742193 U=-0.4188110000
Beta=-0.2268830000 CoreKO=1.0804500000 KON=0,0,0,1.0589200000 KON=1,0,1,0.9196328074
KON=0,1,1,1.2842308441 KON=2,1,1,1.0589200000 EISol=-0.4188110042 EHeat=0.0830298228
Alpha=1.5252600000
GCore=0.0093122953,1.4869373271,2.2725000000
GCore=0.0004584830,1.4001400000,3.6227635356
GCore=-0.0014253211,0.4554718939,3.7486200000
****
C 
PQN=2,2 NValence=4 F0ss=0.4644160000 F0sp=0.4215150000 F0pp=0.3768030000 F2pp=0.1849020000
G1sp=0.2698927751
ZetaOverlap=1.7549900000,1.7248462580
U=-1.9120200000,-1.4558000000
Beta=-0.5775440000,-0.2836780000 DDN=0,1,0.7636296697 DDN=1,1,0.7268010000
CoreKO=1.1124300000 KON=0,0,0,1.0219941783 KON=1,0,1,0.7733408738 KON=0,1,1,1.1239631764
KON=2,1,1,0.8183414075 EISol=-4.4398989268 EHeat=0.2723305520 Alpha=1.4014100000
DipHyp=1.7460380812
GCore=0.0007540190,1.5012893636,3.0188800000
GCore=0.0033165515,1.4375153452,3.1761762549
GCore=-0.0014298200,1.6105409055,3.5549900000
GCore=-0.0000826432,1.3981766024,4.9134183474
****
S 
PQN=3,3 NValence=6 F0ss=0.3890139913 F0sp=0.3183640000 F0pp=0.3136270000 F2pp=0.3415722320
G1sp=0.2874190000
ZetaOverlap=2.2802800000,1.6672600000,0.9327460000
U=-2.1501855485,-1.7903200000
Beta=-0.1638875398,-0.2810990000 DDN=0,1,0.9357514388 DDN=1,1,0.9527838194
CoreKO=1.1851800000 KON=0,0,0,1.0739484755 KON=1,0,1,0.8584030000 KON=0,1,1,1.0746600000
KON=2,1,1,0.7636310000 EISol=-7.0460287497 EHeat=0.1058151363 Alpha=1.3026500000
DipHyp=1.8585800000
GCore=-0.0309912384,1.3464809406,1.4575268029
GCore=-0.0008406850,1.6470799558,1.8670431238
GCore=0.0009214040,3.4180200000,3.7499100000
****

--Link1--
%chk=best
#P AM1(Input,Print) freq geom=Checkpoint

best1

0 1

Method=8 CoreType=1 PeptideFC=0.0109931000 RIJScale=0.5751390573
****
H 
PQN=1 NValence=1 F0ss=0.4029440000 ZetaOverlap=1.1837742193 U=-0.4188110000
Beta=-0.2268830000 CoreKO=1.0804500000 KON=0,0,0,1.0589200000 KON=1,0,1,0.9196328074
KON=0,1,1,1.2842308441 KON=2,1,1,1.0589200000 EISol=-0.4188110042 EHeat=0.0830298228
Alpha=1.5252600000
GCore=0.0093122953,1.4869373271,2.2725000000
GCore=0.0004584830,1.4001400000,3.6227635356
GCore=-0.0014253211,0.4554718939,3.7486200000
****
C 
PQN=2,2 NValence=4 F0ss=0.4644160000 F0sp=0.4215150000 F0pp=0.3768030000 F2pp=0.1849020000
G1sp=0.2698927751
ZetaOverlap=1.7549900000,1.7248462580
U=-1.9120200000,-1.4558000000
Beta=-0.5775440000,-0.2836780000 DDN=0,1,0.7636296697 DDN=1,1,0.7268010000
CoreKO=1.1124300000 KON=0,0,0,1.0219941783 KON=1,0,1,0.7733408738 KON=0,1,1,1.1239631764
KON=2,1,1,0.8183414075 EISol=-4.4398989268 EHeat=0.2723305520 Alpha=1.4014100000
DipHyp=1.7460380812
GCore=0.0007540190,1.5012893636,3.0188800000
GCore=0.0033165515,1.4375153452,3.1761762549
GCore=-0.0014298200,1.6105409055,3.5549900000
GCore=-0.0000826432,1.3981766024,4.9134183474
****
S 
PQN=3,3 NValence=6 F0ss=0.3890139913 F0sp=0.3183640000 F0pp=0.3136270000 F2pp=0.3415722320
G1sp=0.2874190000
ZetaOverlap=2.2802800000,1.6672600000,0.9327460000
U=-2.1501855485,-1.7903200000
Beta=-0.1638875398,-0.2810990000 DDN=0,1,0.9357514388 DDN=1,1,0.9527838194
CoreKO=1.1851800000 KON=0,0,0,1.0739484755 KON=1,0,1,0.8584030000 KON=0,1,1,1.0746600000
KON=2,1,1,0.7636310000 EISol=-7.0460287497 EHeat=0.1058151363 Alpha=1.3026500000
DipHyp=1.8585800000
GCore=-0.0309912384,1.3464809406,1.4575268029
GCore=-0.0008406850,1.6470799558,1.8670431238
GCore=0.0009214040,3.4180200000,3.7499100000
****
