%chk=best
#P AM1(Input,Print) opt

best

0 1
6        1.285993    -0.720757     0.000378
6        0.044398    -1.270794    -0.000306
6        0.043346     1.271008     0.000159
6        1.285560     0.721396    -0.000016
1        2.191633     1.311489    -0.001249
1       -0.237466     2.310602    -0.000594
1       -0.235588    -2.310554    -0.000712
1        2.192407    -1.310365     0.000363
16       -1.241673    -0.000393     0.000056

Method=8 CoreType=1 PeptideFC=0.0119911420 RIJScale=0.5291772086
****
H 
PQN=1 NValence=1 F0ss=0.4721553327 ZetaOverlap=1.2066461576 U=-0.4188110042
Beta=-0.2236921172 CoreKO=1.0589197790 KON=0,0,0,1.0589197790 KON=1,0,1,0.9864103663
KON=0,1,1,1.0589197790 KON=2,1,1,1.0589197790 EISol=-0.4188110042 EHeat=0.0830298228
Alpha=1.5252601686
GCore=0.0082570047,1.4196338584,2.2676713595
GCore=0.0003534810,1.3609835547,3.4698259168
GCore=-0.0012616986,0.6423892902,4.0112427106
****
C 
PQN=2,2 NValence=4 F0ss=0.4494442496 F0sp=0.4275247177 F0pp=0.3768030831 F2pp=0.1903676244
G1sp=0.2635841919
ZetaOverlap=1.8086650000,1.7105194362
U=-1.9120180828,-1.4557965594
Beta=-0.5775444233,-0.2831206129 DDN=0,1,0.8236736000 DDN=1,1,0.7268015000
CoreKO=1.1124284736 KON=0,0,0,1.0272032563 KON=1,0,1,0.8215009055 KON=0,1,1,1.1114945198
KON=2,1,1,0.7783928119 EISol=-4.4398989268 EHeat=0.2723305520 Alpha=1.3815319552
DipHyp=1.6472524267
GCore=0.0007210802,1.0851086812,3.0235618126
GCore=0.0029905896,1.4698493189,3.4664015596
GCore=-0.0013773115,1.4001425905,3.8739385724
GCore=-0.0000788792,1.2532210790,5.0077742521
****
S 
PQN=3,3 NValence=6 F0ss=0.3991377108 F0sp=0.3183640731 F0pp=0.3136271218 F2pp=0.3456917167
G1sp=0.2791629797
ZetaOverlap=2.4281891613,1.6058551335,1.0000000000
U=-2.0834683120,-1.7903186861
Beta=-0.1440781557,-0.2943624448 DDN=0,1,0.9370185235 DDN=1,1,0.9398019876
CoreKO=1.2187928145 KON=0,0,0,1.1639404071 KON=1,0,1,0.8464368816 KON=0,1,1,1.1543033468
KON=2,1,1,0.7746001785 EISol=-7.0460287497 EHeat=0.1058151363 Alpha=1.2681988468
DipHyp=1.8007493954
GCore=-0.0396802224,1.2863644833,1.4563457902
GCore=-0.0009211202,1.6425719595,1.9719733881
GCore=0.0009865468,3.7964407093,5.4994646862
****

--Link1--
%chk=best
#P AM1(Input,Print) opt

best

0 1
6        1.285993    -0.720757     0.000378
6        0.044398    -1.270794    -0.000306
6        0.043346     1.271008     0.000159
6        1.285560     0.721396    -0.000016
1        2.191633     1.311489    -0.001249
1       -0.237466     2.310602    -0.000594
1       -0.235588    -2.310554    -0.000712
1        2.192407    -1.310365     0.000363
16       -1.241673    -0.000393     0.000056

Method=8 CoreType=1 PeptideFC=0.0119911420 RIJScale=0.5291772086
****
H 
PQN=1 NValence=1 F0ss=0.4721553327 ZetaOverlap=1.2066461576 U=-0.4188110042
Beta=-0.2236921172 CoreKO=1.0589197790 KON=0,0,0,1.0589197790 KON=1,0,1,0.9864103663
KON=0,1,1,1.0589197790 KON=2,1,1,1.0589197790 EISol=-0.4188110042 EHeat=0.0830298228
Alpha=1.5252601686
GCore=0.0082570047,1.4196338584,2.2676713595
GCore=0.0003534810,1.3609835547,3.4698259168
GCore=-0.0012616986,0.6423892902,4.0112427106
****
C 
PQN=2,2 NValence=4 F0ss=0.4494442496 F0sp=0.4275247177 F0pp=0.3768030831 F2pp=0.1903676244
G1sp=0.2635841919
ZetaOverlap=1.8086650000,1.7105194362
U=-1.9120180828,-1.4557965594
Beta=-0.5775444233,-0.2831206129 DDN=0,1,0.8236736000 DDN=1,1,0.7268015000
CoreKO=1.1124284736 KON=0,0,0,1.0272032563 KON=1,0,1,0.8215009055 KON=0,1,1,1.1114945198
KON=2,1,1,0.7783928119 EISol=-4.4398989268 EHeat=0.2723305520 Alpha=1.3815319552
DipHyp=1.6472524267
GCore=0.0007210802,1.0851086812,3.0235618126
GCore=0.0029905896,1.4698493189,3.4664015596
GCore=-0.0013773115,1.4001425905,3.8739385724
GCore=-0.0000788792,1.2532210790,5.0077742521
****
S 
PQN=3,3 NValence=6 F0ss=0.3991377108 F0sp=0.3183640731 F0pp=0.3136271218 F2pp=0.3456917167
G1sp=0.2791629797
ZetaOverlap=2.4281891613,1.6058551335,1.0000000000
U=-2.0834683120,-1.7903186861
Beta=-0.1440781557,-0.2943624448 DDN=0,1,0.9370185235 DDN=1,1,0.9398019876
CoreKO=1.2187928145 KON=0,0,0,1.1639404071 KON=1,0,1,0.8464368816 KON=0,1,1,1.1543033468
KON=2,1,1,0.7746001785 EISol=-7.0460287497 EHeat=0.1058151363 Alpha=1.2681988468
DipHyp=1.8007493954
GCore=-0.0396802224,1.2863644833,1.4563457902
GCore=-0.0009211202,1.6425719595,1.9719733881
GCore=0.0009865468,3.7964407093,5.4994646862
****

--Link1--
%chk=best
#P AM1(Input,Print) freq geom=Checkpoint

best1

0 1

Method=8 CoreType=1 PeptideFC=0.0119911420 RIJScale=0.5291772086
****
H 
PQN=1 NValence=1 F0ss=0.4721553327 ZetaOverlap=1.2066461576 U=-0.4188110042
Beta=-0.2236921172 CoreKO=1.0589197790 KON=0,0,0,1.0589197790 KON=1,0,1,0.9864103663
KON=0,1,1,1.0589197790 KON=2,1,1,1.0589197790 EISol=-0.4188110042 EHeat=0.0830298228
Alpha=1.5252601686
GCore=0.0082570047,1.4196338584,2.2676713595
GCore=0.0003534810,1.3609835547,3.4698259168
GCore=-0.0012616986,0.6423892902,4.0112427106
****
C 
PQN=2,2 NValence=4 F0ss=0.4494442496 F0sp=0.4275247177 F0pp=0.3768030831 F2pp=0.1903676244
G1sp=0.2635841919
ZetaOverlap=1.8086650000,1.7105194362
U=-1.9120180828,-1.4557965594
Beta=-0.5775444233,-0.2831206129 DDN=0,1,0.8236736000 DDN=1,1,0.7268015000
CoreKO=1.1124284736 KON=0,0,0,1.0272032563 KON=1,0,1,0.8215009055 KON=0,1,1,1.1114945198
KON=2,1,1,0.7783928119 EISol=-4.4398989268 EHeat=0.2723305520 Alpha=1.3815319552
DipHyp=1.6472524267
GCore=0.0007210802,1.0851086812,3.0235618126
GCore=0.0029905896,1.4698493189,3.4664015596
GCore=-0.0013773115,1.4001425905,3.8739385724
GCore=-0.0000788792,1.2532210790,5.0077742521
****
S 
PQN=3,3 NValence=6 F0ss=0.3991377108 F0sp=0.3183640731 F0pp=0.3136271218 F2pp=0.3456917167
G1sp=0.2791629797
ZetaOverlap=2.4281891613,1.6058551335,1.0000000000
U=-2.0834683120,-1.7903186861
Beta=-0.1440781557,-0.2943624448 DDN=0,1,0.9370185235 DDN=1,1,0.9398019876
CoreKO=1.2187928145 KON=0,0,0,1.1639404071 KON=1,0,1,0.8464368816 KON=0,1,1,1.1543033468
KON=2,1,1,0.7746001785 EISol=-7.0460287497 EHeat=0.1058151363 Alpha=1.2681988468
DipHyp=1.8007493954
GCore=-0.0396802224,1.2863644833,1.4563457902
GCore=-0.0009211202,1.6425719595,1.9719733881
GCore=0.0009865468,3.7964407093,5.4994646862
****
