%chk=best
#P AM1(Input,Print) opt

best

0 1
6        1.285993    -0.720757     0.000378
6        0.044398    -1.270794    -0.000306
6        0.043346     1.271008     0.000159
6        1.285560     0.721396    -0.000016
1        2.191633     1.311489    -0.001249
1       -0.237466     2.310602    -0.000594
1       -0.235588    -2.310554    -0.000712
1        2.192407    -1.310365     0.000363
16       -1.241673    -0.000393     0.000056

Method=8 CoreType=1 PeptideFC=0.0112659596 RIJScale=0.5088974433
****
H 
PQN=1 NValence=1 F0ss=0.4735798049 ZetaOverlap=1.1514422183 U=-0.4465173886
Beta=-0.2268825074 CoreKO=1.0589197790 KON=0,0,0,1.0589197790 KON=1,0,1,1.0589197790
KON=0,1,1,1.0453661400 KON=2,1,1,1.0589197790 EISol=-0.4188110042 EHeat=0.0830298228
Alpha=1.5252601686
GCore=0.0081915584,1.4001425905,2.2676713595
GCore=0.0003606260,1.4001425905,3.1972787183
GCore=-0.0012904379,0.5780587060,3.9684248791
****
C 
PQN=2,2 NValence=4 F0ss=0.4494442496 F0sp=0.4215147623 F0pp=0.3768030831 F2pp=0.1898715146
G1sp=0.2609828706
ZetaOverlap=1.8086650000,1.7447677035
U=-1.9120180828,-1.4557965594
Beta=-0.5775444233,-0.2836784428 DDN=0,1,0.8236736000 DDN=1,1,0.7435233839
CoreKO=1.1124284736 KON=0,0,0,1.1124284736 KON=1,0,1,0.8219701441 KON=0,1,1,1.1124284736
KON=2,1,1,0.8208562175 EISol=-4.4398989268 EHeat=0.2723305520 Alpha=1.4014062429
DipHyp=1.6557129453
GCore=0.0007885612,1.4696512615,3.0235618126
GCore=0.0031892455,1.4001425905,3.4959933458
GCore=-0.0013931594,1.3930299020,3.8739385724
GCore=-0.0000875022,1.4001425905,5.0077742521
****
S 
PQN=3,3 NValence=6 F0ss=0.4331396397 F0sp=0.3183640731 F0pp=0.3136271218 F2pp=0.3456917167
G1sp=0.2838894300
ZetaOverlap=2.3665150000,1.5945929948,0.9807666569
U=-2.0834683120,-1.8149238276
Beta=-0.1475131825,-0.2905136336 DDN=0,1,0.9147993107 DDN=1,1,0.9361392376
CoreKO=1.1674993683 KON=0,0,0,1.1641887134 KON=1,0,1,0.8100296699 KON=0,1,1,1.2120064902
KON=2,1,1,0.7746001785 EISol=-7.0460287497 EHeat=0.1058151363 Alpha=1.2234699855
DipHyp=1.8645612727
GCore=-0.0353616377,1.2863644833,1.4563457902
GCore=-0.0008238398,1.6426921157,2.8408498620
GCore=0.0008320368,3.7964407093,3.7967867236
****

--Link1--
%chk=best
#P AM1(Input,Print) opt

best

0 1
6        1.285993    -0.720757     0.000378
6        0.044398    -1.270794    -0.000306
6        0.043346     1.271008     0.000159
6        1.285560     0.721396    -0.000016
1        2.191633     1.311489    -0.001249
1       -0.237466     2.310602    -0.000594
1       -0.235588    -2.310554    -0.000712
1        2.192407    -1.310365     0.000363
16       -1.241673    -0.000393     0.000056

Method=8 CoreType=1 PeptideFC=0.0112659596 RIJScale=0.5088974433
****
H 
PQN=1 NValence=1 F0ss=0.4735798049 ZetaOverlap=1.1514422183 U=-0.4465173886
Beta=-0.2268825074 CoreKO=1.0589197790 KON=0,0,0,1.0589197790 KON=1,0,1,1.0589197790
KON=0,1,1,1.0453661400 KON=2,1,1,1.0589197790 EISol=-0.4188110042 EHeat=0.0830298228
Alpha=1.5252601686
GCore=0.0081915584,1.4001425905,2.2676713595
GCore=0.0003606260,1.4001425905,3.1972787183
GCore=-0.0012904379,0.5780587060,3.9684248791
****
C 
PQN=2,2 NValence=4 F0ss=0.4494442496 F0sp=0.4215147623 F0pp=0.3768030831 F2pp=0.1898715146
G1sp=0.2609828706
ZetaOverlap=1.8086650000,1.7447677035
U=-1.9120180828,-1.4557965594
Beta=-0.5775444233,-0.2836784428 DDN=0,1,0.8236736000 DDN=1,1,0.7435233839
CoreKO=1.1124284736 KON=0,0,0,1.1124284736 KON=1,0,1,0.8219701441 KON=0,1,1,1.1124284736
KON=2,1,1,0.8208562175 EISol=-4.4398989268 EHeat=0.2723305520 Alpha=1.4014062429
DipHyp=1.6557129453
GCore=0.0007885612,1.4696512615,3.0235618126
GCore=0.0031892455,1.4001425905,3.4959933458
GCore=-0.0013931594,1.3930299020,3.8739385724
GCore=-0.0000875022,1.4001425905,5.0077742521
****
S 
PQN=3,3 NValence=6 F0ss=0.4331396397 F0sp=0.3183640731 F0pp=0.3136271218 F2pp=0.3456917167
G1sp=0.2838894300
ZetaOverlap=2.3665150000,1.5945929948,0.9807666569
U=-2.0834683120,-1.8149238276
Beta=-0.1475131825,-0.2905136336 DDN=0,1,0.9147993107 DDN=1,1,0.9361392376
CoreKO=1.1674993683 KON=0,0,0,1.1641887134 KON=1,0,1,0.8100296699 KON=0,1,1,1.2120064902
KON=2,1,1,0.7746001785 EISol=-7.0460287497 EHeat=0.1058151363 Alpha=1.2234699855
DipHyp=1.8645612727
GCore=-0.0353616377,1.2863644833,1.4563457902
GCore=-0.0008238398,1.6426921157,2.8408498620
GCore=0.0008320368,3.7964407093,3.7967867236
****

--Link1--
%chk=best
#P AM1(Input,Print) freq geom=Checkpoint

best1

0 1

Method=8 CoreType=1 PeptideFC=0.0112659596 RIJScale=0.5088974433
****
H 
PQN=1 NValence=1 F0ss=0.4735798049 ZetaOverlap=1.1514422183 U=-0.4465173886
Beta=-0.2268825074 CoreKO=1.0589197790 KON=0,0,0,1.0589197790 KON=1,0,1,1.0589197790
KON=0,1,1,1.0453661400 KON=2,1,1,1.0589197790 EISol=-0.4188110042 EHeat=0.0830298228
Alpha=1.5252601686
GCore=0.0081915584,1.4001425905,2.2676713595
GCore=0.0003606260,1.4001425905,3.1972787183
GCore=-0.0012904379,0.5780587060,3.9684248791
****
C 
PQN=2,2 NValence=4 F0ss=0.4494442496 F0sp=0.4215147623 F0pp=0.3768030831 F2pp=0.1898715146
G1sp=0.2609828706
ZetaOverlap=1.8086650000,1.7447677035
U=-1.9120180828,-1.4557965594
Beta=-0.5775444233,-0.2836784428 DDN=0,1,0.8236736000 DDN=1,1,0.7435233839
CoreKO=1.1124284736 KON=0,0,0,1.1124284736 KON=1,0,1,0.8219701441 KON=0,1,1,1.1124284736
KON=2,1,1,0.8208562175 EISol=-4.4398989268 EHeat=0.2723305520 Alpha=1.4014062429
DipHyp=1.6557129453
GCore=0.0007885612,1.4696512615,3.0235618126
GCore=0.0031892455,1.4001425905,3.4959933458
GCore=-0.0013931594,1.3930299020,3.8739385724
GCore=-0.0000875022,1.4001425905,5.0077742521
****
S 
PQN=3,3 NValence=6 F0ss=0.4331396397 F0sp=0.3183640731 F0pp=0.3136271218 F2pp=0.3456917167
G1sp=0.2838894300
ZetaOverlap=2.3665150000,1.5945929948,0.9807666569
U=-2.0834683120,-1.8149238276
Beta=-0.1475131825,-0.2905136336 DDN=0,1,0.9147993107 DDN=1,1,0.9361392376
CoreKO=1.1674993683 KON=0,0,0,1.1641887134 KON=1,0,1,0.8100296699 KON=0,1,1,1.2120064902
KON=2,1,1,0.7746001785 EISol=-7.0460287497 EHeat=0.1058151363 Alpha=1.2234699855
DipHyp=1.8645612727
GCore=-0.0353616377,1.2863644833,1.4563457902
GCore=-0.0008238398,1.6426921157,2.8408498620
GCore=0.0008320368,3.7964407093,3.7967867236
****
